*Heading
** Job name: squarePlate_right-parabola Model name: squarePlate
** Generated by: Abaqus/CAE Unofficial Packaging Version
*Preprint, echo=NO, model=NO, history=NO, contact=NO
**
** PARTS
**
*Part, name=Part-1
*Node
      1,        0.125,        0.125
      2,  0.112499997,        0.125
      3,  0.100000001,        0.125
      4, 0.0874999985,        0.125
      5,  0.075000003,        0.125
      6,       0.0625,        0.125
      7, 0.0500000007,        0.125
      8, 0.0375000015,        0.125
      9, 0.0250000004,        0.125
     10, 0.0125000002,        0.125
     11,           0.,        0.125
     12, -0.0125000002,        0.125
     13, -0.0250000004,        0.125
     14, -0.0375000015,        0.125
     15, -0.0500000007,        0.125
     16,      -0.0625,        0.125
     17, -0.075000003,        0.125
     18, -0.0874999985,        0.125
     19, -0.100000001,        0.125
     20, -0.112499997,        0.125
** ... 421 like lines cut
*Element, type=CPS4
  1,   1,   2,  23,  22
  2,   2,   3,  24,  23
  3,   3,   4,  25,  24
  4,   4,   5,  26,  25
  5,   5,   6,  27,  26
  6,   6,   7,  28,  27
  7,   7,   8,  29,  28
  8,   8,   9,  30,  29
  9,   9,  10,  31,  30
 10,  10,  11,  32,  31
 11,  11,  12,  33,  32
 12,  12,  13,  34,  33
 13,  13,  14,  35,  34
 14,  14,  15,  36,  35
 15,  15,  16,  37,  36
 16,  16,  17,  38,  37
 17,  17,  18,  39,  38
 18,  18,  19,  40,  39
 19,  19,  20,  41,  40
 20,  20,  21,  42,  41
** ... 380 like lines cut
*Nset, nset=_PickedSet4, internal, generate
   1,  441,    1
*Elset, elset=_PickedSet4, internal, generate
   1,  400,    1
** Section: Section-1
*Solid Section, elset=_PickedSet4, material=Neo-Hookean
,
*End Part
**  
**
** ASSEMBLY
**
*Assembly, name=Assembly
**  
*Instance, name=Part-1-1, part=Part-1
*End Instance
**  
*Nset, nset=_PickedSet4, internal, instance=Part-1-1, generate
  21,  441,   21
*Elset, elset=_PickedSet4, internal, instance=Part-1-1, generate
  20,  400,   20
*Nset, nset=_PickedSet5, internal, instance=Part-1-1, generate
   1,  421,   21
*Elset, elset=_PickedSet5, internal, instance=Part-1-1, generate
   1,  381,   20
*End Assembly
** 
** MATERIALS
** 
*Material, name=Neo-Hookean
*Hyperelastic, neo hooke
 3.44828e+08, 3e-10
** ----------------------------------------------------------------
** 
** STEP: Step-1
** 
*Step, name=Step-1, nlgeom=YES
*Static
1., 1., 1e-05, 1.
** 
** BOUNDARY CONDITIONS
** 
** Name: Fix left Type: Symmetry/Antisymmetry/Encastre
*Boundary
_PickedSet4, ENCASTRE
** Name: pull right corners Type: Displacement/Rotation Using Analytical Field: parabola
*Boundary
Part-1-1.1, 1, 1, 0.015625
Part-1-1.22, 1, 1, 0.0126562
Part-1-1.43, 1, 1, 0.01
Part-1-1.64, 1, 1, 0.00765625
Part-1-1.85, 1, 1, 0.005625
Part-1-1.106, 1, 1, 0.00390625
Part-1-1.127, 1, 1, 0.0025
Part-1-1.148, 1, 1, 0.00140625
Part-1-1.169, 1, 1, 0.000625
Part-1-1.190, 1, 1, 0.00015625
Part-1-1.211, 1, 1, 9.43706e-33
Part-1-1.232, 1, 1, 0.00015625
Part-1-1.253, 1, 1, 0.000625
Part-1-1.274, 1, 1, 0.00140625
Part-1-1.295, 1, 1, 0.0025
Part-1-1.316, 1, 1, 0.00390625
Part-1-1.337, 1, 1, 0.005625
Part-1-1.358, 1, 1, 0.00765625
Part-1-1.379, 1, 1, 0.01
Part-1-1.400, 1, 1, 0.0126562
** ... 43 like lines cut
** 
** OUTPUT REQUESTS
** 
*Restart, write, frequency=0
** 
** FIELD OUTPUT: F-Output-1
** 
*Output, field
*Node Output
CF, RF, U, UR
*Element Output, directions=NO
LE, PE, PEEQ, PEMAG, S, STH
*EL PRINT, POSITION=AVERAGED AT NODES
DG
** 
** HISTORY OUTPUT: H-Output-1
** 
*Output, history, variable=PRESELECT
*End Step
