*Heading
** Job name: squarePlateUltra_right-sineY Model name: squarePlate
** Generated by: Abaqus/CAE Unofficial Packaging Version
*Preprint, echo=NO, model=NO, history=NO, contact=NO
**
** PARTS
**
*Part, name=Part-2
*Node
      1, -0.675000012, -0.675000012
      2, -0.668749988, -0.675000012
      3, -0.662500024, -0.675000012
      4,     -0.65625, -0.675000012
      5, -0.649999976, -0.675000012
      6, -0.643750012, -0.675000012
      7, -0.637499988, -0.675000012
      8, -0.631250024, -0.675000012
      9,       -0.625, -0.675000012
     10, -0.618749976, -0.675000012
     11, -0.612500012, -0.675000012
     12, -0.606249988, -0.675000012
     13, -0.600000024, -0.675000012
     14,     -0.59375, -0.675000012
     15, -0.587499976, -0.675000012
     16, -0.581250012, -0.675000012
     17, -0.574999988, -0.675000012
     18, -0.568750024, -0.675000012
     19,      -0.5625, -0.675000012
     20, -0.556249976, -0.675000012
** ... 47069 like lines cut
*Element, type=CPS4
    1,     1,     2,   219,   218
    2,     2,     3,   220,   219
    3,     3,     4,   221,   220
    4,     4,     5,   222,   221
    5,     5,     6,   223,   222
    6,     6,     7,   224,   223
    7,     7,     8,   225,   224
    8,     8,     9,   226,   225
    9,     9,    10,   227,   226
   10,    10,    11,   228,   227
   11,    11,    12,   229,   228
   12,    12,    13,   230,   229
   13,    13,    14,   231,   230
   14,    14,    15,   232,   231
   15,    15,    16,   233,   232
   16,    16,    17,   234,   233
   17,    17,    18,   235,   234
   18,    18,    19,   236,   235
   19,    19,    20,   237,   236
   20,    20,    21,   238,   237
** ... 46636 like lines cut
*Nset, nset=_PickedSet4, internal, generate
     1,  47089,      1
*Elset, elset=_PickedSet4, internal, generate
     1,  46656,      1
** Section: Section-1
*Solid Section, elset=_PickedSet4, material=Neo-Hookean
,
*End Part
**  
**
** ASSEMBLY
**
*Assembly, name=Assembly
**  
*Instance, name=Part-2-1, part=Part-2
*End Instance
**  
*Nset, nset=_PickedSet12, internal, instance=Part-2-1, generate
     1,  46873,    217
*Elset, elset=_PickedSet12, internal, instance=Part-2-1, generate
     1,  46441,    216
*Nset, nset=_PickedSet13, internal, instance=Part-2-1, generate
   217,  47089,    217
*Elset, elset=_PickedSet13, internal, instance=Part-2-1, generate
   216,  46656,    216
*Nset, nset=_PickedSet14, internal, instance=Part-2-1
     1,     2,     3,     4,     5,     6,     7,     8,     9,    10,    11,    12,    13,    14,    15,    16
    17,    18,    19,    20,    21,    22,    23,    24,    25,    26,    27,    28,    29,    30,    31,    32
    33,    34,    35,    36,    37,    38,    39,    40,    41,    42,    43,    44,    45,    46,    47,    48
    49,    50,    51,    52,    53,    54,    55,    56,    57,    58,    59,    60,    61,    62,    63,    64
    65,    66,    67,    68,    69,    70,    71,    72,    73,    74,    75,    76,    77,    78,    79,    80
    81,    82,    83,    84,    85,    86,    87,    88,    89,    90,    91,    92,    93,    94,    95,    96
    97,    98,    99,   100,   101,   102,   103,   104,   105,   106,   107,   108,   109,   110,   111,   112
   113,   114,   115,   116,   117,   118,   119,   120,   121,   122,   123,   124,   125,   126,   127,   128
   129,   130,   131,   132,   133,   134,   135,   136,   137,   138,   139,   140,   141,   142,   143,   144
   145,   146,   147,   148,   149,   150,   151,   152,   153,   154,   155,   156,   157,   158,   159,   160
   161,   162,   163,   164,   165,   166,   167,   168,   169,   170,   171,   172,   173,   174,   175,   176
   177,   178,   179,   180,   181,   182,   183,   184,   185,   186,   187,   188,   189,   190,   191,   192
   193,   194,   195,   196,   197,   198,   199,   200,   201,   202,   203,   204,   205,   206,   207,   208
   209,   210,   211,   212,   213,   214,   215,   216,   217, 46873, 46874, 46875, 46876, 46877, 46878, 46879
 46880, 46881, 46882, 46883, 46884, 46885, 46886, 46887, 46888, 46889, 46890, 46891, 46892, 46893, 46894, 46895
 46896, 46897, 46898, 46899, 46900, 46901, 46902, 46903, 46904, 46905, 46906, 46907, 46908, 46909, 46910, 46911
 46912, 46913, 46914, 46915, 46916, 46917, 46918, 46919, 46920, 46921, 46922, 46923, 46924, 46925, 46926, 46927
 46928, 46929, 46930, 46931, 46932, 46933, 46934, 46935, 46936, 46937, 46938, 46939, 46940, 46941, 46942, 46943
 46944, 46945, 46946, 46947, 46948, 46949, 46950, 46951, 46952, 46953, 46954, 46955, 46956, 46957, 46958, 46959
 46960, 46961, 46962, 46963, 46964, 46965, 46966, 46967, 46968, 46969, 46970, 46971, 46972, 46973, 46974, 46975
** ... 8 like lines cut
*Elset, elset=_PickedSet14, internal, instance=Part-2-1
     1,     2,     3,     4,     5,     6,     7,     8,     9,    10,    11,    12,    13,    14,    15,    16
    17,    18,    19,    20,    21,    22,    23,    24,    25,    26,    27,    28,    29,    30,    31,    32
    33,    34,    35,    36,    37,    38,    39,    40,    41,    42,    43,    44,    45,    46,    47,    48
    49,    50,    51,    52,    53,    54,    55,    56,    57,    58,    59,    60,    61,    62,    63,    64
    65,    66,    67,    68,    69,    70,    71,    72,    73,    74,    75,    76,    77,    78,    79,    80
    81,    82,    83,    84,    85,    86,    87,    88,    89,    90,    91,    92,    93,    94,    95,    96
    97,    98,    99,   100,   101,   102,   103,   104,   105,   106,   107,   108,   109,   110,   111,   112
   113,   114,   115,   116,   117,   118,   119,   120,   121,   122,   123,   124,   125,   126,   127,   128
   129,   130,   131,   132,   133,   134,   135,   136,   137,   138,   139,   140,   141,   142,   143,   144
   145,   146,   147,   148,   149,   150,   151,   152,   153,   154,   155,   156,   157,   158,   159,   160
   161,   162,   163,   164,   165,   166,   167,   168,   169,   170,   171,   172,   173,   174,   175,   176
   177,   178,   179,   180,   181,   182,   183,   184,   185,   186,   187,   188,   189,   190,   191,   192
   193,   194,   195,   196,   197,   198,   199,   200,   201,   202,   203,   204,   205,   206,   207,   208
   209,   210,   211,   212,   213,   214,   215,   216, 46441, 46442, 46443, 46444, 46445, 46446, 46447, 46448
 46449, 46450, 46451, 46452, 46453, 46454, 46455, 46456, 46457, 46458, 46459, 46460, 46461, 46462, 46463, 46464
 46465, 46466, 46467, 46468, 46469, 46470, 46471, 46472, 46473, 46474, 46475, 46476, 46477, 46478, 46479, 46480
 46481, 46482, 46483, 46484, 46485, 46486, 46487, 46488, 46489, 46490, 46491, 46492, 46493, 46494, 46495, 46496
 46497, 46498, 46499, 46500, 46501, 46502, 46503, 46504, 46505, 46506, 46507, 46508, 46509, 46510, 46511, 46512
 46513, 46514, 46515, 46516, 46517, 46518, 46519, 46520, 46521, 46522, 46523, 46524, 46525, 46526, 46527, 46528
 46529, 46530, 46531, 46532, 46533, 46534, 46535, 46536, 46537, 46538, 46539, 46540, 46541, 46542, 46543, 46544
** ... 7 like lines cut
*End Assembly
** 
** MATERIALS
** 
*Material, name=Neo-Hookean
*Hyperelastic, neo hooke
 3.44828e+08, 3e-10
** ----------------------------------------------------------------
** 
** STEP: Step-1
** 
*Step, name=Step-1, nlgeom=YES
*Static
1., 1., 1e-05, 1.
** 
** BOUNDARY CONDITIONS
** 
** Name: BC top bottom Type: Displacement/Rotation
*Boundary
_PickedSet14, 2, 2
** Name: Fix left part 2 Type: Symmetry/Antisymmetry/Encastre
*Boundary
_PickedSet12, ENCASTRE
** Name: pull right Type: Displacement/Rotation Using Analytical Field: sinewave
*Boundary
Part-2-1.217, 1, 1, 0.00772764
Part-2-1.434, 1, 1, 0.0080352
Part-2-1.651, 1, 1, 0.00832267
Part-2-1.868, 1, 1, 0.00858934
Part-2-1.1085, 1, 1, 0.00883455
Part-2-1.1302, 1, 1, 0.00905767
Part-2-1.1519, 1, 1, 0.00925815
Part-2-1.1736, 1, 1, 0.00943549
Part-2-1.1953, 1, 1, 0.00958924
Part-2-1.2170, 1, 1, 0.00971903
Part-2-1.2387, 1, 1, 0.00982453
Part-2-1.2604, 1, 1, 0.00990547
Part-2-1.2821, 1, 1, 0.00996165
Part-2-1.3038, 1, 1, 0.00999293
Part-2-1.3255, 1, 1, 0.00999923
Part-2-1.3472, 1, 1, 0.00998054
Part-2-1.3689, 1, 1, 0.00993691
Part-2-1.3906, 1, 1, 0.00986844
Part-2-1.4123, 1, 1, 0.0097753
Part-2-1.4340, 1, 1, 0.00965773
** ... 631 like lines cut
** 
** OUTPUT REQUESTS
** 
*Restart, write, frequency=0
** 
** FIELD OUTPUT: F-Output-1
** 
*Output, field
*Node Output
CF, RF, U, UR
*Element Output, directions=NO
LE, PE, PEEQ, PEMAG, S, STH
*EL PRINT, POSITION=AVERAGED AT NODES
DG
** 
** HISTORY OUTPUT: H-Output-1
** 
*Output, history, variable=PRESELECT
*End Step
