1

   Abaqus 6.14-1                                  Date 13-Jan-2019   Time 20:21:53
   For use at OREGON STATE UNIVERSITY under license from Dassault Systemes or its subsidiary.



                         The Abaqus Software is a product of:

                           Dassault Systemes Simulia Corp.
                                 Rising Sun Mills
                                 166 Valley Street
                           Providence, RI 02909-2499, USA
 


                   Available for internal use at OREGON STATE UNIVERSITY. 
                   The Abaqus Online Support System is accessible
                   through the "My Support" section of the SIMULIA
                   Home Page at http://www.simulia.com.

                   Support policies for academic licenses are described
                   on the SIMULIA web site at
                   http://www.3ds.com/products/simulia/academics/
 
                          On machine whitestones 
                          you are authorized to run
                          Abaqus/Standard until 15-Aug-2019

                          Your site id is: 200000000024345 


 
                    For assistance or any other information you may
                    obtain contact information for your local office
                    from the world wide web at:

                      http://www.3ds.com/products/simulia/locations/

 
                * * * * * * * * * * * * * * * * * * * * * * * * * * * * * * 
                *                                                         * 
                *                   *****************                     * 
                *                   *  N O T I C E  *                     * 
                *                   *****************                     * 
                *                                                         * 
                *                                                         * 
                *                    Abaqus 6.14-1                        * 
                *                                                         * 
                *          BUILD ID: 2014_06_04-15.11.02 134264           * 
                *                                                         * 
                *                                                         * 
                *  Please make sure you are using release 6.14 manuals    * 
                *  plus the notes accompanying this release.              * 
                *                                                         * 
                *                                                         * 
                *                                                         * 
                *                                                         * 
                *                                                         * 
                *   This program may not be used for commercial purposes  * 
                *           without payment of a commercial fee.          * 
                *                                                         * 
                * * * * * * * * * * * * * * * * * * * * * * * * * * * * * * 


 



     PROCESSING PART, INSTANCE, AND ASSEMBLY INFORMATION
   *******************************************************


     END PROCESSING PART, INSTANCE, AND ASSEMBLY INFORMATION
   ***********************************************************




     OPTIONS BEING PROCESSED
   ***************************


  *Heading
  *Node
  *Element, type=C3D10
  *Nset, nset=ASSEMBLY_PART-1-1__PICKEDSET8
  *Elset, elset=ASSEMBLY_PART-1-1__PICKEDSET8
  *Elset, elset=ASSEMBLY_PART-1-1__SURF-1_S1
  *Elset, elset=ASSEMBLY_PART-1-1__SURF-1_S2
  *Elset, elset=ASSEMBLY_PART-1-1__SURF-1_S3
  *Elset, elset=ASSEMBLY_PART-1-1__SURF-1_S4
  *Nset, nset=ASSEMBLY_SET-BC
  *Elset, elset=ASSEMBLY_SET-BC
  *surface, type=ELEMENT, name=ASSEMBLY_PART-1-1_SURF-1
  *surface, type=ELEMENT, name=ASSEMBLY_PART-1-1_SURF-1
  *material, name=MATERIAL-1
  *hyperelastic, neohooke
  *material, name=MATERIAL-2
  *usermaterial, constants=2
  *solidsection, elset=ASSEMBLY_PART-1-1__PICKEDSET8, material=MATERIAL-1
  *boundary
  *solidsection, elset=ASSEMBLY_PART-1-1__PICKEDSET8, material=MATERIAL-1
  *surface, type=ELEMENT, name=ASSEMBLY_PART-1-1_SURF-1
  *output, field
  *output, history, variable=PRESELECT
  *elementoutput, directions=NO
  *output, field
  *output, history, variable=PRESELECT
  *elementoutput, directions=NO
  *output, field
  *output, history, variable=PRESELECT
  *elementoutput, directions=NO
  *Step, name=Step-1, nlgeom=YES
  *output, field
  *output, history, variable=PRESELECT
  *Step, name=Step-1, nlgeom=YES
  *Step, name=Step-1, nlgeom=YES
  *static
  *boundary
  *output, field
  *nodeoutput
  *elementoutput, directions=NO
  *elprint, position=CENTROIDAL

 ***WARNING: OUTPUT REQUEST DG IS ONLY AVAILABLE FOR *HYPERELASTIC/FOAM AND 
             *USER MATERIAL.
  *output, history, variable=PRESELECT
  *endstep

 ***WARNING: OUTPUT REQUEST V IS NOT AVAILABLE FOR THIS TYPE OF ANALYSIS

 ***WARNING: OUTPUT REQUEST VF IS NOT AVAILABLE FOR THIS TYPE OF ANALYSIS

 ***WARNING: OUTPUT REQUEST VT IS NOT AVAILABLE FOR THIS TYPE OF ANALYSIS

 ***WARNING: THE REQUEST FOR MISES OUTPUT WILL BE REPLACED BY A REQUEST FOR S 
             OUTPUT

 ***WARNING: OUTPUT VARIABLE ALPHAN HAS NO COMPONENTS IN THIS ANALYSIS FOR 
             ELEMENT TYPE C3D10

 ***WARNING: OUTPUT REQUEST CS11 IS NOT AVAILABLE FOR ELEMENT TYPE C3D10

 ***WARNING: OUTPUT REQUEST CTSHR IS NOT AVAILABLE FOR ELEMENT TYPE C3D10

 ***WARNING: OUTPUT REQUEST SEPE IS NOT AVAILABLE FOR ELEMENT TYPE C3D10

 ***WARNING: OUTPUT REQUEST SPE IS NOT AVAILABLE FOR ELEMENT TYPE C3D10

 ***WARNING: OUTPUT REQUEST TRIAX IS NOT AVAILABLE FOR THE MATERIAL FOR ELEMENT 
             TYPE C3D10

 ***WARNING: OUTPUT REQUEST TSHR IS NOT AVAILABLE FOR ELEMENT TYPE C3D10

 ***WARNING: OUTPUT REQUEST VE IS NOT AVAILABLE FOR THE MATERIAL FOR ELEMENT 
             TYPE C3D10

 ***WARNING: OUTPUT REQUEST VEEQ IS NOT AVAILABLE FOR THE MATERIAL FOR ELEMENT 
             TYPE C3D10

 ***WARNING: OUTPUT REQUEST VS IS NOT AVAILABLE FOR THE MATERIAL FOR ELEMENT 
             TYPE C3D10

 ***WARNING: OUTPUT REQUEST ESF1 IS NOT AVAILABLE FOR ELEMENT TYPE C3D10

 ***WARNING: OUTPUT REQUEST SALPHA IS NOT AVAILABLE FOR ELEMENT TYPE C3D10

 ***WARNING: OUTPUT REQUEST SE IS NOT AVAILABLE FOR ELEMENT TYPE C3D10

 ***WARNING: OUTPUT REQUEST SEE IS NOT AVAILABLE FOR ELEMENT TYPE C3D10

 ***WARNING: OUTPUT REQUEST SEP IS NOT AVAILABLE FOR ELEMENT TYPE C3D10

 ***WARNING: OUTPUT REQUEST SF IS NOT AVAILABLE FOR ELEMENT TYPE C3D10

 ***WARNING: OUTPUT REQUEST SSAVG IS NOT AVAILABLE FOR ELEMENT TYPE C3D10

 ***WARNING: OUTPUT REQUEST NFORCSO IS NOT AVAILABLE FOR ELEMENT TYPE C3D10
  *Step, name=Step-1, nlgeom=YES
  *static
  *boundary
  *endstep
1

   Abaqus 6.14-1                                  Date 13-Jan-2019   Time 20:21:53
   For use at OREGON STATE UNIVERSITY under license from Dassault Systemes or its subsidiary.

                                                                                     


                              E L E M E N T   D E F I N I T I O N S

       NUMBER   TYPE    PROPERTY    NODES FORMING ELEMENT
                        REFERENCE

          1   C3D10         1        330       331       332       333       789       788       787       791       790       792
          2   C3D10         1        330       332       331       334       787       788       789       794       793       795
          3   C3D10         1        330       334       335       336       794       797       796       799       798       800
          4   C3D10         1        330       337       334       336       802       801       794       799       803       798
          5   C3D10         1        330       338       339       340       806       805       804       808       807       809
          6   C3D10         1        330       341       338       340       811       810       806       808       812       807
          7   C3D10         1        342       343       344       345       815       814       813       817       816       818
          8   C3D10         1        346       347       348       349       821       820       819       823       822       824
          9   C3D10         1        347       342       350       349       827       826       825       822       828       829
         10   C3D10         1        342       351       343       339       831       830       815       833       832       834
         11   C3D10         1        342       344       347       345       813       835       827       817       818       836
         12   C3D10         1        345       342       350       347       817       826       837       836       827       825
         13   C3D10         1        285       352       293       284       840       839       838       842       841       843
         14   C3D10         1        342       351       339       350       831       832       833       826       844       845
         15   C3D10         1        353       354       355       356       848       847       846       850       849       851
         16   C3D10         1        353       357       354       358       853       852       848       855       854       856
         17   C3D10         1        359       360       357       353       859       858       857       861       860       853
         18   C3D10         1        358       361       362       353       864       863       862       855       865       866
         19   C3D10         1        353       362       356       363       866       867       850       869       868       870
         20   C3D10         1        353       362       363       364       866       868       869       872       871       873
         21   C3D10         1        365       152       154       151       876       875       874       878       877       879
         22   C3D10         1        366       367       368       369       882       881       880       884       883       885
         23   C3D10         1        366       369       370       371       884       887       886       889       888       890
         24   C3D10         1        366       372       370       373       892       891       886       894       893       895
         25   C3D10         1        366       374       373       375       897       896       894       899       898       900
         26   C3D10         1        357       361       332       331       903       902       901       905       904       788
         27   C3D10         1        376       277       377       272       908       907       906       910       909       911
         28   C3D10         1        378       357       353       361       913       853       912       914       903       865
         29   C3D10         1        353       358       354       356       855       856       848       850       915       849
         30   C3D10         1        379        78        79        75       918       917       916       920       919       921
         31   C3D10         1        357       360       332       378       858       922       901       913       923       924
         32   C3D10         1        357       360       380       332       858       926       925       901       922       927
         33   C3D10         1        381       382       383       384       930       929       928       932       931       933
         34   C3D10         1        381       385       144       146       936       935       934       938       937       939
         35   C3D10         1        381       386       387       385       942       941       940       936       943       944
         36   C3D10         1        381       146       386       385       938       945       942       936       937       943
         37   C3D10         1        381       328       382       384       947       946       930       932       948       931
         38   C3D10         1        381       388       159       160       951       950       949       953       952       954
         39   C3D10         1        381       144       382       328       934       955       930       947       956       946
         40   C3D10         1        389       390       391       392       959       958       957       961       960       962
         41   C3D10         1        389       393       394       395       965       964       963       967       966       968
         42   C3D10         1        389       396       391       394       970       969       957       963       971       972
         43   C3D10         1        389       332       396       378       974       973       970       975       924       976
         44   C3D10         1        389       397       393       395       978       977       965       967       979       966
         45   C3D10         1        389       332       378       398       974       924       975       981       980       982
         46   C3D10         1        340       332       330       341       983       787       808       812       984       811
         47   C3D10         1        332       378       398       361       924       982       980       902       914       985
         48   C3D10         1        357       332       361       378       901       902       903       913       924       914
         49   C3D10         1        330       396       332       340       986       973       787       808       987       983
         50   C3D10         1        330       399       339       400       989       988       804       991       990       992
         51   C3D10         1        401        76        69        10       995       994       993       997       996       998
         52   C3D10         1        330       392       336       335      1000       999       799       796      1001       800
         53   C3D10         1        402       403       372       404      1004      1003      1002      1006      1005      1007
         54   C3D10         1        405       172       171       312      1010      1009      1008      1012      1011      1013
         55   C3D10         1        402       404       352       406      1006      1015      1014      1017      1016      1018
         56   C3D10         1        402       352       373       390      1014      1020      1019      1022      1021      1023
         57   C3D10         1        407       247       234       408      1026      1025      1024      1028      1027      1029
         58   C3D10         1        402       394       406       390      1031      1030      1017      1022      1032      1033
         59   C3D10         1        409       410       411       412      1036      1035      1034      1038      1037      1039
         60   C3D10         1        409       411       410       413      1034      1035      1036      1041      1040      1042
         61   C3D10         1        414       415       416       406      1045      1044      1043      1047      1046      1048
         62   C3D10         1        413       417       410       409      1050      1049      1042      1041      1051      1036
         63   C3D10         1        409       418       412       419      1053      1052      1038      1055      1054      1056
         64   C3D10         1        409       418       419       420      1053      1054      1055      1058      1057      1059
         65   C3D10         1        409       418       420       421      1053      1057      1058      1061      1060      1062
         66   C3D10         1        409       418       421       422      1053      1060      1061      1064      1063      1065
         67   C3D10         1        409       411       423       424      1034      1067      1066      1069      1068      1070
         68   C3D10         1        425       426       427       428      1073      1072      1071      1075      1074      1076
         69   C3D10         1        425       429       422       430      1079      1078      1077      1081      1080      1082
         70   C3D10         1        425       431       338       432      1085      1084      1083      1087      1086      1088
         71   C3D10         1        330       337       336       400       802       803       799       991      1089      1090
         72   C3D10         1        330       399       336       392       989      1091       799      1000      1092       999
         73   C3D10         1        338       340       431       429       807      1093      1084      1095      1094      1096
         74   C3D10         1        432       426       433       425      1099      1098      1097      1087      1073      1100
         75   C3D10         1        425       351       434       435      1103      1102      1101      1105      1104      1106
         76   C3D10         1        338       435       433       337      1109      1108      1107      1111      1110      1112
         77   C3D10         1        334       341       338       330      1114       810      1113       794       811       806
         78   C3D10         1        338       351       340       429      1116      1115       807      1095      1117      1094
         79   C3D10         1        425       338       351       435      1083      1116      1103      1105      1109      1104
         80   C3D10         1        436       281       280       297      1120      1119      1118      1122      1121      1123
         81   C3D10         1        359       437       438       439      1126      1125      1124      1128      1127      1129
         82   C3D10         1        359       440       439       355      1131      1130      1128      1133      1132      1134
         83   C3D10         1        440       355       359       354      1132      1133      1131      1135       847      1136
         84   C3D10         1        359       441       440       341      1138      1137      1131      1140      1139      1141
         85   C3D10         1        359       440       441       442      1131      1137      1138      1143      1142      1144
         86   C3D10         1        354       357       359       443       852       857      1136      1146      1145      1147
         87   C3D10         1        360       357       353       378       858       853       860       923       913       912
         88   C3D10         1        359       438       412       360      1124      1149      1148       859      1150      1151
         89   C3D10         1        444       445       446       354      1154      1153      1152      1156      1155      1157
         90   C3D10         1        386       447       337       448      1160      1159      1158      1162      1161      1163
         91   C3D10         1        386       449       450       451      1166      1165      1164      1168      1167      1169
         92   C3D10         1        386       452       447       448      1171      1170      1160      1162      1172      1161
         93   C3D10         1        386       385       448       387       943      1173      1162       941       944      1174
         94   C3D10         1        340       343       429       351      1176      1175      1094      1115       830      1117
         95   C3D10         1        340       343       453       454      1176      1178      1177      1180      1179      1181
         96   C3D10         1        340       453       380       454      1177      1183      1182      1180      1181      1184
         97   C3D10         1        429       454       431       418      1186      1185      1096      1188      1187      1189
         98   C3D10         1        340       454       429       343      1180      1186      1094      1176      1179      1175
         99   C3D10         1        455       150       456       149      1192      1191      1190      1194      1193      1195
        100   C3D10         1        429       430       457       458      1080      1197      1196      1199      1198      1200
        101   C3D10         1        459        46        44        56      1203      1202      1201      1205      1204      1206
        102   C3D10         1        425       351       429       430      1103      1117      1079      1081      1207      1080
        103   C3D10         1        425       429       338       431      1079      1095      1083      1085      1096      1084
        104   C3D10         1        429       458       454       418      1199      1208      1186      1188      1209      1187
        105   C3D10         1        458       430       422       429      1198      1082      1210      1199      1080      1078
        106   C3D10         1        460       461       122       385      1213      1212      1211      1215      1214      1216
        107   C3D10         1        462       463       464       465      1219      1218      1217      1221      1220      1222
        108   C3D10         1        462       463       466       464      1219      1224      1223      1217      1218      1225
        109   C3D10         1        462       467       468       428      1228      1227      1226      1230      1229      1231
        110   C3D10         1        462       469       470       471      1234      1233      1232      1236      1235      1237
        111   C3D10         1        472       473       474       475      1240      1239      1238      1242      1241      1243
        112   C3D10         1        462       468       476       463      1226      1245      1244      1219      1246      1247
        113   C3D10         1        344       477       478       479      1250      1249      1248      1252      1251      1253
        114   C3D10         1        480       463       466       476      1255      1224      1254      1256      1247      1257
        115   C3D10         1        463       466       476       462      1224      1257      1247      1219      1223      1244
        116   C3D10         1        481       382       131       143      1260      1259      1258      1262      1261      1263
        117   C3D10         1        481       482       483       134      1266      1265      1264      1268      1267      1269
        118   C3D10         1        481       382       143       484      1260      1261      1262      1271      1270      1272
        119   C3D10         1        485       143       484       481      1274      1272      1273      1275      1262      1271
        120   C3D10         1        486       426       487       488      1278      1277      1276      1280      1279      1281
        121   C3D10         1        489       282       281       298      1284      1283      1282      1286      1285      1287
        122   C3D10         1        486       488       490       491      1280      1289      1288      1291      1290      1292
        123   C3D10         1        486       491       490       492      1291      1292      1288      1294      1293      1295
        124   C3D10         1        486       493       494       455      1298      1297      1296      1300      1299      1301
        125   C3D10         1        486       493       495       494      1298      1303      1302      1296      1297      1304
        126   C3D10         1        496       344       343       345      1306       814      1305      1307       818       816
        127   C3D10         1        496       339       391       371      1310      1309      1308      1312      1311      1313
        128   C3D10         1        496       396       394       391      1315       971      1314      1308       969       972
        129   C3D10         1        496       453       497       394      1318      1317      1316      1314      1319      1320
        130   C3D10         1        496       391       394       390      1308       972      1314      1321       958      1032
        131   C3D10         1        402       394       496       497      1031      1314      1322      1323      1320      1316
        132   C3D10         1        402       496       414       497      1322      1325      1324      1323      1316      1326
        133   C3D10         1        498       499       500       454      1329      1328      1327      1331      1330      1332
        134   C3D10         1        453       344       500       343      1335      1334      1333      1178       814      1336
        135   C3D10         1        501       502       503       133      1339      1338      1337      1341      1340      1342
        136   C3D10         1        496       453       344       497      1318      1335      1306      1316      1317      1343
        137   C3D10         1        453       497       504       500      1317      1345      1344      1333      1346      1347
        138   C3D10         1        453       497       505       504      1317      1349      1348      1344      1345      1350
        139   C3D10         1        453       396       505       394      1352      1351      1348      1319       971      1353
        140   C3D10         1        453       505       396       499      1348      1351      1352      1355      1354      1356
        141   C3D10         1        506       349       348       507      1358       824      1357      1360      1359      1361
        142   C3D10         1        507       348       508       350      1361      1363      1362      1365      1364      1366
        143   C3D10         1        507       508       509       483      1362      1368      1367      1370      1369      1371
        144   C3D10         1        349       510       511       512      1374      1373      1372      1376      1375      1377
        145   C3D10         1        513        92       325       107      1380      1379      1378      1382      1381      1383
        146   C3D10         1        514       510       511       349      1385      1373      1384      1386      1374      1372
        147   C3D10         1        349       506       510       507      1358      1387      1374      1359      1360      1388
        148   C3D10         1        425       338       435       433      1083      1109      1105      1100      1107      1108
        149   C3D10         1        425       515       427       422      1390      1389      1071      1077      1391      1392
        150   C3D10         1        342       430       429       351      1394      1080      1393       831      1207      1117
        151   C3D10         1        338       339       351       435       805       832      1116      1109      1395      1104
        152   C3D10         1        340       496       391       396      1397      1308      1396       987      1315       969
        153   C3D10         1        425       434       351       430      1101      1102      1103      1081      1398      1207
        154   C3D10         1        351       434       516       430      1102      1400      1399      1207      1398      1401
        155   C3D10         1        517       334       357       341      1404      1403      1402      1405      1114      1406
        156   C3D10         1        384       148       518       149      1409      1408      1407      1411      1410      1412
        157   C3D10         1        332       361       398       333       902       985       980       792      1413      1414
        158   C3D10         1        362       361       519       378       863      1416      1415      1417       914      1418
        159   C3D10         1        341       332       330       334       984       787       811      1114       793       794
        160   C3D10         1        455       492       150       140      1420      1419      1192      1422      1421      1423
        161   C3D10         1        332       380       340       396       927      1182       983       973      1424       987
        162   C3D10         1        494       140       520       492      1427      1426      1425      1428      1421      1429
        163   C3D10         1        338       431       340       341      1084      1093       807       810      1430       812
        164   C3D10         1        330       338       400       339       806      1431       991       804       805       992
        165   C3D10         1        330       391       340       339      1432      1396       808       804      1309       809
        166   C3D10         1        521       363       194       202      1435      1434      1433      1437      1436      1438
        167   C3D10         1        521       356       363       522      1439       870      1435      1441      1440      1442
        168   C3D10         1        521       194       523       193      1433      1444      1443      1446      1445      1447
        169   C3D10         1        524       444       525       331      1450      1449      1448      1452      1451      1453
        170   C3D10         1        331       526       527       524      1456      1455      1454      1452      1457      1458
        171   C3D10         1        528       331       526       527      1460      1456      1459      1461      1454      1455
        172   C3D10         1        524       529       526       527      1463      1462      1457      1458      1464      1455
        173   C3D10         1        524       530       531       525      1467      1466      1465      1448      1468      1469
        174   C3D10         1        358       532       361       331      1471      1470       864      1473      1472       904
        175   C3D10         1        532       362       533       358      1476      1475      1474      1471       862      1477
        176   C3D10         1        532       523       200       533      1480      1479      1478      1474      1481      1482
        177   C3D10         1        534       188       207       189      1485      1484      1483      1487      1486      1488
        178   C3D10         1        524       199       526       180      1490      1489      1457      1492      1491      1493
        179   C3D10         1        524       532       526       199      1495      1494      1457      1490      1496      1489
        180   C3D10         1        532       200       445       533      1478      1498      1497      1474      1482      1499
        181   C3D10         1        369       535       371       536      1501      1500       888      1503      1502      1504
        182   C3D10         1        369       537       535       536      1506      1505      1501      1503      1507      1502
        183   C3D10         1        366       392       391       374      1509       962      1508       897      1510      1511
        184   C3D10         1        366       399       392       375      1512      1092      1509       899      1513      1514
        185   C3D10         1        369       538       399       367      1517      1516      1515       883      1518      1519
        186   C3D10         1        366       369       371       399       884       888       889      1512      1515      1520
        187   C3D10         1        369       537       368       370      1506      1521       885       887      1522      1523
        188   C3D10         1        447       336       337       400      1524       803      1159      1525      1090      1089
        189   C3D10         1        447       539       540       541      1528      1527      1526      1530      1529      1531
        190   C3D10         1        447       450       541       452      1533      1532      1530      1170      1534      1535
        191   C3D10         1        386       450       447       452      1164      1533      1160      1171      1534      1170
        192   C3D10         1        447       542       543       448      1538      1537      1536      1161      1539      1540
        193   C3D10         1        438       364       544       360      1543      1542      1541      1150      1544      1545
        194   C3D10         1        438       364       545       546      1543      1547      1546      1549      1548      1550
        195   C3D10         1        438       360       547       412      1150      1552      1551      1149      1151      1553
        196   C3D10         1        438       547       360       548      1551      1552      1150      1555      1554      1556
        197   C3D10         1        359       439       438       545      1128      1129      1124      1558      1557      1546
        198   C3D10         1        438       546       545       549      1549      1550      1546      1560      1559      1561
        199   C3D10         1        438       439       437       549      1129      1127      1125      1560      1562      1563
        200   C3D10         1        550       437       549       438      1565      1563      1564      1566      1125      1560
        201   C3D10         1        457       551       552       553      1569      1568      1567      1571      1570      1572
        202   C3D10         1        429       343       454       554      1175      1179      1186      1574      1573      1575
        203   C3D10         1        429       418       431       422      1188      1189      1096      1078      1063      1576
        204   C3D10         1        454       418       499       380      1187      1577      1330      1184      1578      1579
        205   C3D10         1        340       343       351       339      1176       830      1115       809       834       832
        206   C3D10         1        555       556       477       557      1582      1581      1580      1584      1583      1585
        207   C3D10         1        340       431       454       380      1093      1185      1180      1182      1586      1184
        208   C3D10         1        352       406       558       390      1018      1588      1587      1021      1033      1589
        209   C3D10         1        352       273       404       264      1591      1590      1015      1593      1592      1594
        210   C3D10         1        352       416       273       285      1596      1595      1591       840      1597      1598
        211   C3D10         1        352       559       404       373      1600      1599      1015      1020      1601      1602
        212   C3D10         1        560       293       406       558      1605      1604      1603      1607      1606      1588
        213   C3D10         1        561       562       296       288      1610      1609      1608      1612      1611      1613
        214   C3D10         1        404       352       373       402      1015      1020      1602      1006      1014      1019
        215   C3D10         1        393       397       563       564       977      1615      1614      1617      1616      1618
        216   C3D10         1        389       333       332       398      1619       792       974       981      1414       980
        217   C3D10         1        389       390       565       395       959      1621      1620       967      1622      1623
        218   C3D10         1        556       566       567       568      1626      1625      1624      1628      1627      1629
        219   C3D10         1        332       378       360       396       924       923       922       973       976      1630
        220   C3D10         1        378       544       360       396      1631      1545       923       976      1632      1630
        221   C3D10         1        393       505       544       396      1635      1634      1633      1636      1351      1632
        222   C3D10         1        453       500       344       497      1333      1334      1335      1317      1346      1343
        223   C3D10         1        344       569       556       570      1639      1638      1637      1641      1640      1642
        224   C3D10         1        342       347       344       554       827       835       813      1644      1643      1645
        225   C3D10         1        351       434       435       350      1102      1106      1104       844      1646      1647
        226   C3D10         1        425       571       434       426      1649      1648      1101      1073      1650      1651
        227   C3D10         1        434       430       572       516      1398      1653      1652      1400      1401      1654
        228   C3D10         1        507       573       510       512      1656      1655      1388      1658      1657      1375
        229   C3D10         1        574       345       371       535      1661      1660      1659      1663      1662      1500
        230   C3D10         1        345       575       535       574      1665      1664      1662      1661      1666      1663
        231   C3D10         1        344       347       478       554       835      1667      1248      1645      1643      1668
        232   C3D10         1        496       344       345       403      1306       818      1307      1670      1669      1671
        233   C3D10         1        344       567       556       575      1672      1624      1637      1674      1673      1675
        234   C3D10         1        344       569       554       478      1639      1676      1645      1248      1677      1668
        235   C3D10         1        342       554       344       343      1644      1645       813       815      1573       814
        236   C3D10         1        447       449       334       539      1680      1679      1678      1528      1681      1682
        237   C3D10         1        449       451       387       433      1167      1684      1683      1686      1685      1687
        238   C3D10         1        576       577       346       113      1690      1689      1688      1692      1691      1693
        239   C3D10         1        386       449       451       387      1166      1167      1168       941      1683      1684
        240   C3D10         1        539       447       336       334      1528      1524      1694      1682      1678       798
        241   C3D10         1        334       517       449       433      1404      1695      1679      1697      1696      1686
        242   C3D10         1        449       450       451       578      1165      1169      1167      1699      1698      1700
        243   C3D10         1        334       527       336       539      1702      1701       798      1682      1703      1694
        244   C3D10         1        579       291       271       270      1706      1705      1704      1708      1707      1709
        245   C3D10         1        342       554       429       580      1644      1574      1393      1711      1710      1712
        246   C3D10         1        330       400       338       337       991      1431       806       802      1089      1111
        247   C3D10         1        345       339       371       350      1713      1311      1660       837       845      1714
        248   C3D10         1        389       396       332       330       970       973       974      1715       986       787
        249   C3D10         1        339       435       400       350      1395      1716       992       845      1647      1717
        250   C3D10         1        339       391       371       399      1309      1313      1311       988      1718      1520
        251   C3D10         1        330       391       339       399      1432      1309       804       989      1718       988
        252   C3D10         1        440       581       442       437      1720      1719      1142      1722      1721      1723
        253   C3D10         1        357       332       380       341       901       927       925      1406       984      1724
        254   C3D10         1        440       443       341       441      1726      1725      1141      1137      1727      1139
        255   C3D10         1        359       439       440       437      1128      1130      1131      1126      1127      1722
        256   C3D10         1        536       582       583       508      1730      1729      1728      1732      1731      1733
        257   C3D10         1        571       434       573       508      1648      1735      1734      1737      1736      1738
        258   C3D10         1        434       508       435       350      1736      1739      1106      1646      1366      1647
        259   C3D10         1        346       506       349       348      1740      1358       823       819      1357       824
        260   C3D10         1        507       512       434       573      1658      1742      1741      1656      1657      1735
        261   C3D10         1        508       582       435       536      1731      1743      1739      1732      1730      1744
        262   C3D10         1        571       508       582       435      1737      1731      1745      1746      1739      1743
        263   C3D10         1        508       434       573       507      1736      1735      1738      1362      1741      1656
        264   C3D10         1        508       482       583       509      1748      1747      1733      1368      1749      1750
        265   C3D10         1        507       509       508       348      1367      1368      1362      1361      1751      1363
        266   C3D10         1        508       536       350       348      1732      1752      1366      1363      1753      1364
        267   C3D10         1        435       582       571       337      1743      1745      1746      1110      1754      1755
        268   C3D10         1        342       429       343       351      1393      1175       815       831      1117       830
        269   C3D10         1        508       536       435       350      1732      1744      1739      1366      1752      1647
        270   C3D10         1        339       350       400       371       845      1717       992      1311      1714      1756
        271   C3D10         1        340       429       454       431      1094      1186      1180      1093      1096      1185
        272   C3D10         1        340       496       339       391      1397      1310       809      1396      1308      1309
        273   C3D10         1        338       339       435       400       805      1395      1109      1431       992      1716
        274   C3D10         1        338       435       337       400      1109      1110      1111      1431      1716      1089
        275   C3D10         1        584       474       552       585      1759      1758      1757      1761      1760      1762
        276   C3D10         1        427       572       586       587      1765      1764      1763      1767      1766      1768
        277   C3D10         1        427       422       588       589      1392      1770      1769      1772      1771      1773
        278   C3D10         1        427       590       589       591      1775      1774      1772      1777      1776      1778
        279   C3D10         1        427       501       587       590      1780      1779      1767      1775      1781      1782
        280   C3D10         1        427       430       572       592      1783      1653      1765      1785      1784      1786
        281   C3D10         1        425       592       430       427      1787      1784      1081      1071      1785      1783
        282   C3D10         1        434       426       571       493      1651      1650      1648      1789      1788      1790
        283   C3D10         1        434       426       493       592      1651      1788      1789      1792      1791      1793
        284   C3D10         1        430       516       551       572      1401      1795      1794      1653      1654      1796
        285   C3D10         1        425       338       429       351      1083      1095      1079      1103      1116      1117
        286   C3D10         1        425       426       428       432      1073      1074      1075      1087      1099      1797
        287   C3D10         1        427       426       488       428      1072      1279      1798      1076      1074      1799
        288   C3D10         1        486       593       594       426      1802      1801      1800      1278      1803      1804
        289   C3D10         1        388       159       160       244       950       954       952      1806      1805      1807
        290   C3D10         1        486       593       455       518      1802      1808      1300      1810      1809      1811
        291   C3D10         1        486       593       493       455      1802      1812      1298      1300      1808      1299
        292   C3D10         1        481       582       482       131      1814      1813      1266      1258      1815      1816
        293   C3D10         1        595        13        85        90      1819      1818      1817      1821      1820      1822
        294   C3D10         1        593       481       596       485      1825      1824      1823      1826      1275      1827
        295   C3D10         1        455       485       518       593      1829      1828      1811      1808      1826      1809
        296   C3D10         1        481       484       593       383      1271      1830      1825      1832      1831      1833
        297   C3D10         1        597       184       523       598      1836      1835      1834      1838      1837      1839
        298   C3D10         1        597        19       523       183      1841      1840      1834      1843      1842      1844
        299   C3D10         1        597       599       172        18      1847      1846      1845      1849      1848      1850
        300   C3D10         1        597       184       598       600      1836      1837      1838      1852      1851      1853
        301   C3D10         1        544       396       499       360      1632      1356      1854      1545      1630      1855
        302   C3D10         1        393       564       563       601      1617      1618      1614      1857      1856      1858
        303   C3D10         1        378       360       544       364       923      1545      1631      1859      1544      1542
        304   C3D10         1        544       602       548       499      1862      1861      1860      1854      1863      1864
        305   C3D10         1        438       548       544       603      1555      1860      1541      1866      1865      1867
        306   C3D10         1        544       548       601       604      1860      1869      1868      1871      1870      1872
        307   C3D10         1        544       605       602       505      1874      1873      1862      1634      1875      1876
        308   C3D10         1        357       334       517       331      1403      1404      1402       905       795      1877
        309   C3D10         1        396       360       380       499      1630       926      1424      1356      1855      1579
        310   C3D10         1        334       447       336       337      1678      1524       798       801      1159       803
        311   C3D10         1        330       333       389       391       791      1619      1715      1432      1878       957
        312   C3D10         1        332       380       396       360       927      1424       973       922       926      1630
        313   C3D10         1        343       340       453       496      1176      1177      1178      1305      1397      1318
        314   C3D10         1        606       214       204       203      1881      1880      1879      1883      1882      1884
        315   C3D10         1        357       517       341       443      1402      1405      1406      1145      1885      1725
        316   C3D10         1        357       354       358       517       852       856       854      1402      1886      1887
        317   C3D10         1        607       477       100       608      1890      1889      1888      1892      1891      1893
        318   C3D10         1        341       432       468       609      1896      1895      1894      1898      1897      1899
        319   C3D10         1        338       432       334       433      1088      1900      1113      1107      1097      1697
        320   C3D10         1        334       449       337       433      1679      1901       801      1697      1686      1112
        321   C3D10         1        340       391       330       396      1396      1432       808       987       969       986
        322   C3D10         1        341       468       431       441      1894      1902      1430      1139      1903      1904
        323   C3D10         1        441       380       442       431      1906      1905      1144      1904      1586      1907
        324   C3D10         1        341       432       609       517      1896      1897      1898      1405      1908      1909
        325   C3D10         1        378       396       393       544       976      1636      1910      1631      1632      1633
        326   C3D10         1        530       197       218       198      1913      1912      1911      1915      1914      1916
        327   C3D10         1        361       357       353       358       903       853       865       864       854       855
        328   C3D10         1        398       528       565       333      1919      1918      1917      1414      1920      1921
        329   C3D10         1        398       528       333       361      1919      1920      1414       985      1922      1413
        330   C3D10         1        332       333       331       361       792       790       788       902      1413       904
        331   C3D10         1        610       611       225       224      1925      1924      1923      1927      1926      1928
        332   C3D10         1        610       606       214       204      1930      1881      1929      1931      1879      1880
        333   C3D10         1        610       439       612       606      1934      1933      1932      1930      1935      1936
        334   C3D10         1        610       611       224       612      1925      1926      1927      1932      1937      1938
        335   C3D10         1        610       439       606       549      1934      1935      1930      1939      1562      1940
        336   C3D10         1        613       475       472       474      1942      1242      1941      1943      1243      1238
        337   C3D10         1        613       472       585       474      1941      1945      1944      1943      1238      1760
        338   C3D10         1        613       472        67        72      1941      1947      1946      1949      1948      1950
        339   C3D10         1        150       151       140       492      1952      1951      1423      1419      1953      1421
        340   C3D10         1        614       615       616       617      1956      1955      1954      1958      1957      1959
        341   C3D10         1        614       618       615        50      1961      1960      1956      1963      1962      1964
        342   C3D10         1        614        50       617        54      1963      1965      1958      1967      1966      1968
        343   C3D10         1        418       499       380       412      1577      1579      1578      1052      1969      1970
        344   C3D10         1        454       499       418       498      1330      1577      1187      1331      1329      1971
        345   C3D10         1        454       418       380       431      1187      1578      1184      1185      1189      1586
        346   C3D10         1        409       411       419       412      1034      1972      1055      1038      1039      1056
        347   C3D10         1        418       458       498       420      1209      1973      1971      1057      1974      1975
        348   C3D10         1        494       141       135       140      1978      1977      1976      1427      1979      1980
        349   C3D10         1        418       619       431       422      1982      1981      1189      1063      1983      1576
        350   C3D10         1        496       453       394       396      1318      1319      1314      1315      1352       971
        351   C3D10         1        496       345       343       339      1307       816      1305      1310      1713       834
        352   C3D10         1        366       391       372       374      1508      1984       892       897      1511      1985
        353   C3D10         1        340       339       496       343       809      1310      1397      1176       834      1305
        354   C3D10         1        508       348       509       536      1363      1751      1368      1732      1753      1986
        355   C3D10         1        389       392       391       333       961       962       957      1619      1987      1878
        356   C3D10         1        389       392       565       390       961      1988      1620       959       960      1621
        357   C3D10         1        391       392       390       374       962       960       958      1511      1510      1989
        358   C3D10         1        354       445       446       533      1155      1153      1157      1990      1499      1991
        359   C3D10         1        354       358       533       356       856      1477      1990       849       915      1992
        360   C3D10         1        465       162       155       154      1995      1994      1993      1997      1996      1998
        361   C3D10         1        359       443       440       354      1147      1726      1131      1136      1146      1135
        362   C3D10         1        353       356       362       358       850       867       866       855       915       862
        363   C3D10         1        332       340       380       341       983      1182       927       984       812      1724
        364   C3D10         1        354       620       355       446      2000      1999       847      1157      2001      2002
        365   C3D10         1        491       492       520       151      1293      1429      2003      2004      1953      2005
        366   C3D10         1        440       620       355       354      2006      1999      1132      1135      2000       847
        367   C3D10         1        563       519       397       378      2008      2007      1615      2009      1418      2010
        368   C3D10         1        357       359       341       380       857      1140      1406       925      2011      1724
        369   C3D10         1        378       393       563       544      1910      1614      2009      1631      1633      2012
        370   C3D10         1        334       331       330       335       795       789       794       797      2013       796
        371   C3D10         1        331       528       333       335      1460      1920       790      2013      2014      2015
        372   C3D10         1        331       526       361       528      1456      2016       904      1460      1459      1922
        373   C3D10         1        481       387       382       383      2018      2017      1260      1832      2019       929
        374   C3D10         1        508       482       509       483      1748      1749      1368      1369      1265      1371
        375   C3D10         1        481       483       482       571      1264      1265      1266      2021      2020      2022
        376   C3D10         1        481       387       571       582      2018      2023      2021      1814      2024      1745
        377   C3D10         1        434       435       508       571      1106      1739      1736      1648      1746      1737
        378   C3D10         1        342       345       339       343       817      1713       833       815       816       834
        379   C3D10         1        516       351       342       350      1399       831      2025      2026       844       826
        380   C3D10         1        349       577       347       621      2028      2027       822      2030      2029      2031
        381   C3D10         1        346       577       347       349      1689      2027       821       823      2028       822
        382   C3D10         1        350       347       348       345       825       820      1364       837       836      2032
        383   C3D10         1        622       346       347       535      2034       821      2033      2036      2035      2037
        384   C3D10         1        342       516       350       349      2025      2026       826       828      2038       829
        385   C3D10         1        565       623       624       528      2041      2040      2039      1918      2042      2043
        386   C3D10         1        625       626        45       627      2046      2045      2044      2048      2047      2049
        387   C3D10         1        353       359       438       545       861      1124      2050      2051      1558      1546
        388   C3D10         1        389       395       565       397       967      1623      1620       978       979      2052
        389   C3D10         1        624       565       374       628      2039      2054      2053      2056      2055      2057
        390   C3D10         1        628       565       623       624      2055      2041      2058      2056      2039      2040
        391   C3D10         1        565       395       390       629      1623      1622      1621      2060      2059      2061
        392   C3D10         1        123       326       512       128      2064      2063      2062      2066      2065      2067
        393   C3D10         1        565       628       630       629      2055      2069      2068      2060      2070      2071
        394   C3D10         1        513       543       538       631      2074      2073      2072      2076      2075      2077
        395   C3D10         1        374       629       628       565      2078      2070      2057      2054      2060      2055
        396   C3D10         1        565       390       392       374      1621       960      1988      2054      1989      1510
        397   C3D10         1        344       497       414       496      1343      1326      2079      1306      1316      1325
        398   C3D10         1        496       391       390       372      1308       958      1321      2080      1984      2081
        399   C3D10         1        559       284       264       263      2084      2083      2082      2086      2085      2087
        400   C3D10         1        389       394       391       390       963       972       957       959      1032       958
        401   C3D10         1        389       395       394       390       967       968       963       959      1622      1032
        402   C3D10         1        357       331       332       334       905       788       901      1403       795       793
        403   C3D10         1        394       415       497       406      2089      2088      1320      1030      1046      2090
        404   C3D10         1        402       406       394       497      1017      1030      1031      1323      2090      1320
        405   C3D10         1        632       633       634       635      2093      2092      2091      2095      2094      2096
        406   C3D10         1        632       636       637       638      2099      2098      2097      2101      2100      2102
        407   C3D10         1        632       633       639       634      2093      2104      2103      2091      2092      2105
        408   C3D10         1        632       640       641       642      2108      2107      2106      2110      2109      2111
        409   C3D10         1        632       636       550       412      2099      2113      2112      2115      2114      2116
        410   C3D10         1        636       639       638       632      2118      2117      2100      2099      2103      2101
        411   C3D10         1        434       573       493       571      1735      2119      1789      1648      1734      1790
        412   C3D10         1        573       592       512       434      2121      2120      1657      1735      1792      1742
        413   C3D10         1        425       432       338       433      1087      1088      1083      1100      1097      1107
        414   C3D10         1        508       482       483       571      1748      1265      1369      1737      2022      2020
        415   C3D10         1        482       131       582       124      1816      1815      1813      2123      2122      2124
        416   C3D10         1        643       536       582       583      2126      1730      2125      2127      1728      1729
        417   C3D10         1        644         8         7       129      2130      2129      2128      2132      2131      2133
        418   C3D10         1        350       371       348       536      1714      2134      1364      1752      1504      1753
        419   C3D10         1        524       445       198       530      2137      2136      2135      1467      2138      1915
        420   C3D10         1        491       495       520       492      2140      2139      2003      1293      2141      1429
        421   C3D10         1        526       623       645       528      2144      2143      2142      1459      2042      2145
        422   C3D10         1        526       623       528       529      2144      2042      1459      1462      2146      2147
        423   C3D10         1        526       519       645       182      2149      2148      2142      2151      2150      2152
        424   C3D10         1        361       519       645       526      1416      2148      2153      2016      2149      2142
        425   C3D10         1        446       220       646       533      2156      2155      2154      1991      2157      2158
        426   C3D10         1        647       251       648       649      2161      2160      2159      2163      2162      2164
        427   C3D10         1        650       292       277       272      2167      2166      2165      2169      2168       909
        428   C3D10         1        532       445       358       533      1497      2170      1471      1474      1499      1477
        429   C3D10         1        219       530       198       445      2172      1915      2171      2173      2138      2136
        430   C3D10         1        651       553        63        62      2176      2175      2174      2178      2177      2179
        431   C3D10         1        331       532       361       526      1472      1470       904      1456      1494      2016
        432   C3D10         1        532       199       445       200      1496      2180      1497      1478      2181      1498
        433   C3D10         1        382       582       385       387      2184      2183      2182      2017      2024       944
        434   C3D10         1        382       385       132       144      2182      2186      2185       955       935      2187
        435   C3D10         1        481       142       485       143      2189      2188      1275      1262      2190      1274
        436   C3D10         1        481       593       573       571      1825      2192      2191      2021      2193      1734
        437   C3D10         1        449       578       525       450      1699      2195      2194      1165      1698      2196
        438   C3D10         1        594       433       451       467      2198      1685      2197      2200      2199      2201
        439   C3D10         1        451       652       388       653      2204      2203      2202      2206      2205      2207
        440   C3D10         1        654       451       652       450      2209      2204      2208      2210      1169      2211
        441   C3D10         1        451       578       450       654      1700      1698      1169      2209      2212      2210
        442   C3D10         1        386       451       652       388      1168      2204      2213      2214      2202      2203
        443   C3D10         1        655       594       656       451      2217      2216      2215      2218      2197      2219
        444   C3D10         1        411       637       657       658      2222      2221      2220      2224      2223      2225
        445   C3D10         1        475       424       659       660      2228      2227      2226      2230      2229      2231
        446   C3D10         1        661       423       662       658      2234      2233      2232      2236      2235      2237
        447   C3D10         1        423       411       661       424      1067      2238      2234      1070      1068      2239
        448   C3D10         1        353       545       364       363      2051      1547       872       869      2240       873
        449   C3D10         1        362       523       363       598      2242      2241       868      2243      1839      2244
        450   C3D10         1        532       533       362       523      1474      1475      1476      1480      1481      2242
        451   C3D10         1        445       663       664       219      2247      2246      2245      2173      2248      2249
        452   C3D10         1        445       444       446       664      1154      1152      1153      2245      2250      2251
        453   C3D10         1        445       663       219       530      2247      2248      2173      2138      2252      2172
        454   C3D10         1        654       663       578       530      2254      2253      2212      2255      2252      2256
        455   C3D10         1        654       663       217       323      2254      2258      2257      2260      2259      2261
        456   C3D10         1        664       444       446       665      2250      1152      2251      2263      2262      2264
        457   C3D10         1        444       663       578       665      2266      2253      2265      2262      2267      2268
        458   C3D10         1         54       617        59       327      1968      2270      2269      2272      2271      2273
        459   C3D10         1        663       530       218       219      2252      1911      2274      2248      2172      2275
        460   C3D10         1        663       665       408       666      2267      2277      2276      2279      2278      2280
        461   C3D10         1        663       665       664       408      2267      2263      2246      2276      2277      2281
        462   C3D10         1        636       442       412       410      2283      2282      2114      2285      2284      1037
        463   C3D10         1        636       657       667       410      2288      2287      2286      2285      2289      2290
        464   C3D10         1        434       516       572       512      1400      1654      1652      1742      2291      2292
        465   C3D10         1        427       426       425       592      1072      1073      1071      1785      1791      1787
        466   C3D10         1        573       493       495       592      2119      1303      2293      2121      1793      2294
        467   C3D10         1        573       668       510       669      2296      2295      1655      2298      2297      2299
        468   C3D10         1        507       434       512       516      1741      1742      1658      2300      1400      2291
        469   C3D10         1        593       493       573       571      1812      2119      2192      2193      1790      1734
        470   C3D10         1        573       508       483       571      1738      1369      2301      1734      1737      2020
        471   C3D10         1        507       350       434       516      1365      1646      1741      2300      2026      1400
        472   C3D10         1        593       573       455       596      2192      2302      1808      1823      2303      2304
        473   C3D10         1        670       473       475       660      2306      1241      2305      2308      2307      2230
        474   C3D10         1        473       459       660       670      2310      2309      2307      2306      2311      2308
        475   C3D10         1        671        60       651        63      2314      2313      2312      2316      2315      2174
        476   C3D10         1         83       672       673       472      2319      2318      2317      2321      2320      2322
        477   C3D10         1        472       672       673       473      2320      2318      2322      1240      2323      2324
        478   C3D10         1        359       360       412       380       859      1151      1148      2011       926      1970
        479   C3D10         1        431       341       441       380      1430      1139      1904      1586      1724      1906
        480   C3D10         1        440       441       442       581      1137      1144      1142      1720      2325      1719
        481   C3D10         1        442       619       431       412      2326      1981      1907      2282      2327      2328
        482   C3D10         1        590       674       327       617      2331      2330      2329      2333      2332      2271
        483   C3D10         1        441       442       675       676      1144      2335      2334      2337      2336      2338
        484   C3D10         1        381       383       451       384       928      2340      2339       932       933      2341
        485   C3D10         1        401        76       379        75       995      2343      2342      2345      2344       920
        486   C3D10         1        242       652       159       386      2348      2347      2346      2349      2213      2350
        487   C3D10         1        652       209       452       242      2353      2352      2351      2348      2354      2355
        488   C3D10         1        651        61        63        60      2357      2356      2174      2313      2358      2315
        489   C3D10         1        551       553       586       651      1570      2360      2359      2361      2176      2362
        490   C3D10         1        386       652       452       242      2213      2351      1171      2349      2348      2355
        491   C3D10         1        386       652       451       450      2213      2204      1168      1164      2211      1169
        492   C3D10         1        652       159       386       388      2347      2350      2213      2203       950      2214
        493   C3D10         1        594       487       426       428      2363      1277      1804      2365      2364      1074
        494   C3D10         1        486       593       426       493      1802      1803      1278      1298      1812      1788
        495   C3D10         1        593       426       493       571      1803      1788      1812      2193      1650      1790
        496   C3D10         1        594       656       383       518      2216      2367      2366      2369      2368      2370
        497   C3D10         1        594       426       571       433      1804      1650      2371      2198      1098      2372
        498   C3D10         1        425       431       432       428      1085      1086      1087      1075      2373      1797
        499   C3D10         1        594       426       432       428      1804      1099      2374      2365      1074      1797
        500   C3D10         1        486       456       487       518      2376      2375      1276      1810      2377      2378
        501   C3D10         1        430       551       580       457      1794      2380      2379      1197      1569      2381
        502   C3D10         1        427       430       422       586      1783      1082      1392      1763      2382      2383
        503   C3D10         1        486       426       495       493      1278      2384      1302      1298      1788      1303
        504   C3D10         1        425       427       430       422      1071      1783      1081      1077      1392      1082
        505   C3D10         1        426       488       495       592      1279      2385      2384      1791      2386      2294
        506   C3D10         1        596       485       142       141      1827      2188      2387      2389      2388      2390
        507   C3D10         1         53       590       587       501      2392      1782      2391      2393      1781      1779
        508   C3D10         1        501       590        47        53      1781      2395      2394      2393      2392      2396
        509   C3D10         1        133       587         7       644      2399      2398      2397      2401      2400      2128
        510   C3D10         1        644       137       503       669      2404      2403      2402      2406      2405      2407
        511   C3D10         1        644       503       137       133      2402      2403      2404      2401      1342      2408
        512   C3D10         1        644       587       651       677      2400      2410      2409      2412      2411      2413
        513   C3D10         1          7       651         8       644      2415      2414      2129      2128      2409      2130
        514   C3D10         1        501       591       678       679      2418      2417      2416      2420      2419      2421
        515   C3D10         1        587       644       572       677      2400      2422      1766      2411      2412      2423
        516   C3D10         1        123       669       129       644      2426      2425      2424      2427      2406      2132
        517   C3D10         1        680       671        59        60      2430      2429      2428      2431      2314      2432
        518   C3D10         1        418       421       422       458      1060      1065      1063      1209      2433      1210
        519   C3D10         1        421       616       681       475      2436      2435      2434      2438      2437      2439
        520   C3D10         1        572       512       551       677      2292      2440      1796      2423      2441      2442
        521   C3D10         1        474       681       420       458      2445      2444      2443      2447      2446      1974
        522   C3D10         1        434       592       430       425      1792      1784      1398      1101      1787      1081
        523   C3D10         1        353       438       359       360      2050      1124       861       860      1150       859
        524   C3D10         1        340       341       431       380       812      1430      1093      1182      1724      1586
        525   C3D10         1        341       432       431       468      1896      1086      1430      1894      1895      1902
        526   C3D10         1        442       431       380       412      1907      1586      1905      2282      2328      1970
        527   C3D10         1        429       418       422       458      1188      1063      1078      1199      1209      1210
        528   C3D10         1        530       531       525       654      1466      1469      1468      2255      2448      2449
        529   C3D10         1        524       358       444       331      2451      2450      1450      1452      1473      1451
        530   C3D10         1        530       198       531       197      1915      2452      1466      1913      1914      2453
        531   C3D10         1        537       682       574       535      2456      2455      2454      1505      2457      1663
        532   C3D10         1        535       537       682       683      1505      2456      2457      2459      2458      2460
        533   C3D10         1        535       346       347       348      2035       821      2037      2461       819       820
        534   C3D10         1        535       682       622       346      2457      2462      2036      2035      2463      2034
        535   C3D10         1        345       535       575       622      1662      1664      1665      2464      2036      2465
        536   C3D10         1        535       684       574       575      2467      2466      1663      1664      2468      1666
        537   C3D10         1        535       370       371       574      2469       890      1500      1663      2470      1659
        538   C3D10         1        601       685       686       168      2473      2472      2471      2475      2474      2476
        539   C3D10         1        369       535       370       371      1501      2469       887       888      1500       890
        540   C3D10         1        535       371       536       348      1500      1504      1502      2461      2134      1753
        541   C3D10         1        429       430       580       457      1080      2379      1712      1196      1197      2381
        542   C3D10         1        554       569       584       478      1676      2478      2477      1668      1677      2479
        543   C3D10         1        344       347       345       575       835       836       818      1674      2480      1665
        544   C3D10         1        342       347       580       349       827      2481      1711       828       822      2482
        545   C3D10         1        554       478       584       457      1668      2479      2477      2484      2483      2485
        546   C3D10         1        366       372       371       370       892      2486       889       886       891       890
        547   C3D10         1        369       371       400       536       888      1756      2487      1503      1504      2488
        548   C3D10         1        496       371       391       372      1312      1313      1308      2080      2486      1984
        549   C3D10         1        334       341       432       338      1114      1896      1900      1113       810      1088
        550   C3D10         1        507       350       516       349      1365      2026      2300      1359       829      2038
        551   C3D10         1        554       342       429       343      1644      1393      1574      1573       815      1175
        552   C3D10         1        409       421       475       616      1061      2438      2489      2490      2436      2437
        553   C3D10         1        616       687       589       615      2493      2492      2491      1955      2494      2495
        554   C3D10         1        614       475       616       659      2496      2437      1954      2497      2226      2498
[...]
        3473        1.000       1.000       1.000      0.5000      4.9392E-07  1.2228E-07 -6.0108E-07 -3.0239E-07 -9.9572E-07
        3474        1.000       1.000       1.000      0.5000      9.7302E-07 -4.1240E-07  8.1687E-07  1.2830E-07  2.3564E-07
        3475        1.000       1.000       1.000      0.5000     -2.4322E-06  4.8219E-07  3.0568E-06 -1.6379E-06 -7.9604E-07
        3476        1.000       1.000       1.000      0.5000     -5.7918E-08  2.7245E-06  4.2072E-06 -6.6127E-07  1.1303E-06
        3477        1.000       1.000       1.000      0.5000      8.1506E-07 -5.0765E-07 -4.2905E-07  2.0393E-07  4.7764E-07
        3478        1.000       1.000       1.000      0.5000     -5.7361E-06 -4.5843E-08  1.5425E-06 -9.7062E-08  2.5998E-06
        3479        1.000       1.000       1.000      0.5000      9.9828E-06 -2.3657E-07  2.2612E-06 -1.3143E-06 -8.3569E-08
        3480        1.000       1.000       1.000      0.5000     -8.7546E-07  5.1255E-07  2.8909E-07 -2.1063E-07 -3.1552E-07
        3481        1.000       1.000       1.000      0.5000      7.0860E-07  5.1208E-07 -7.5847E-07 -3.3527E-07 -6.5047E-08
        3482        1.000       1.000       1.000      0.5000     -5.4186E-06  5.9236E-07  1.8532E-06 -2.2767E-07 -2.5111E-07
        3483        1.000       1.000       1.000      0.5000     -1.8238E-06 -8.2318E-07  6.1318E-07  2.3252E-07 -1.2629E-06
        3484        1.000       1.000       1.000      0.5000     -1.0491E-06  1.1131E-06  3.3167E-07  1.1081E-06 -1.3778E-06
        3485        1.000       1.000       1.000      0.5000      1.8775E-07 -4.5324E-09 -6.2698E-07  3.6206E-07  6.3552E-07
        3486        1.000       1.000       1.000      0.5000     -1.2087E-06 -8.1569E-07  3.9195E-07  1.3701E-07  1.9389E-07
        3487        1.000       1.000       1.000      0.5000     -1.2516E-06  4.2444E-07 -1.6265E-06  6.5603E-07 -3.3869E-07
        3488        1.000       1.000       1.000      0.5000     -1.8074E-07  7.0410E-08 -2.1375E-07  2.6213E-07  5.0863E-09
        3489        1.000       1.000       1.000      0.5000     -2.2932E-06  1.7641E-06  3.2552E-07  3.9748E-07  7.4916E-08
        3490        1.000       1.000       1.000      0.5000     -9.9704E-08 -1.2975E-08 -3.5577E-08 -9.6853E-08 -3.7491E-08
        3491        1.000       1.000       1.000      0.5000     -4.0860E-08  8.1975E-08  4.0424E-08 -6.5629E-08 -5.9997E-08
        3492        1.000       1.000       1.000      0.5000     -7.1957E-07  5.7498E-07  8.6047E-07  2.9124E-07  2.4823E-08
        3493        1.000       1.000       1.000      0.5000      1.5358E-06  8.6244E-07  8.5706E-07  4.5398E-08  2.2314E-08
        3494        1.000       1.000       1.000      0.5000     -1.9544E-07 -6.6645E-08  2.6891E-07 -1.6109E-07 -1.2614E-07
        3495        1.000       1.000       1.000      0.5000     -5.6926E-06 -6.2822E-08  1.7823E-06  5.0691E-07  2.5418E-07
        3496        1.000       1.000       1.000      0.5000      9.0294E-09 -3.1635E-08  9.4841E-08 -2.9708E-08 -6.3336E-09
        3497        1.000       1.000       1.000      0.5000     -5.1326E-06  1.1499E-06 -2.1495E-07  1.0539E-06 -1.7600E-06
        3498        1.000       1.000       1.000      0.5000      1.2799E-06 -1.7419E-07 -7.4222E-07 -5.4895E-07 -1.2375E-06
        3499        1.000       1.000       1.000      0.5000     -3.3642E-07  9.9653E-07  7.3434E-07 -2.7105E-07  4.8055E-07
        3500        1.000       1.000       1.000      0.5000     -2.5384E-07 -2.2094E-08 -1.1668E-08 -2.1817E-07  1.9466E-07
        3501        1.000       1.000       1.000      0.5000     -9.0591E-08  1.6215E-07  1.6557E-07  3.5350E-08  3.0247E-08
        3502        1.000       1.000       1.000      0.5000      8.4414E-06  2.4711E-06  9.4469E-07  1.1708E-08  8.1124E-07
        3503        1.000       1.000       1.000      0.5000     -2.1022E-06 -3.7819E-07 -4.8032E-07  1.2232E-06 -9.6482E-07
        3504        1.000       1.000       1.000      0.5000      3.6662E-08 -2.5367E-08 -5.2410E-08  1.9692E-08 -1.2449E-08
        3505        1.000       1.000       1.000      0.5000      4.8291E-07  1.2199E-06 -7.3485E-08 -3.9681E-07 -8.2196E-07
        3506        1.000       1.000       1.000      0.5000     -1.7832E-07 -2.8811E-07  3.8029E-07 -1.1714E-06 -1.0018E-06
        3507        1.000       1.000       1.000      0.5000     -3.0929E-07 -5.6495E-07 -1.1163E-06  3.2596E-07  3.2255E-07
        3508        1.000       1.000       1.000      0.5000     -5.4653E-09 -2.0083E-06 -2.9335E-07 -6.6414E-07 -7.6822E-07
        3509        1.000       1.000       1.000      0.5000      4.8246E-07  8.5744E-07 -5.0834E-07 -3.8486E-07  9.2334E-08
        3510        1.000       1.000       1.000      0.5000     -9.8273E-08 -4.2523E-08  1.0723E-07  2.2053E-07  9.8474E-08
        3511        1.000       1.000       1.000      0.5000      3.5096E-06 -6.4916E-07 -4.4684E-07 -8.5762E-07  8.6903E-07
        3512        1.000       1.000       1.000      0.5000      2.3782E-06 -2.7777E-07  7.5621E-07 -1.1205E-06  2.8911E-06
        3513        1.000       1.000       1.000      0.5000      1.6425E-05 -3.0959E-06  3.8092E-06 -2.4276E-07 -1.1757E-06
        3514        1.000       1.000       1.000      0.5000     -6.3580E-08  1.7036E-07  7.5779E-08 -8.1942E-08  3.3650E-07
        3515        1.000       1.000       1.000      0.5000      2.7497E-07  1.7859E-06 -3.0599E-07 -2.3745E-06 -4.9888E-06
        3516        1.000       1.000       1.000      0.5000     -3.7142E-07  1.5128E-07 -1.8536E-07 -3.1826E-07 -3.9064E-07
        3517        1.000       1.000       1.000      0.5000      1.0571E-07  1.3665E-06  2.4357E-06  1.6911E-07 -2.7760E-07
        3518        1.000       1.000       1.000      0.5000      4.0356E-06 -1.1030E-06  1.8644E-06 -1.5180E-06 -4.4648E-07
        3519        1.000       1.000       1.000      0.5000      3.4019E-08 -1.1198E-07  1.6755E-07 -2.7789E-07 -5.1340E-08
        3520        1.000       1.000       1.000      0.5000     -9.0454E-08  5.9583E-08 -6.1356E-08 -6.3867E-08 -7.2138E-08
        3521        1.000       1.000       1.000      0.5000     -2.8816E-07  4.1139E-07 -1.0773E-07 -2.0219E-07 -4.4379E-08
        3522        1.000       1.000       1.000      0.5000     -3.4961E-06  1.0968E-07 -2.4847E-06 -2.0010E-07  2.5836E-06
        3523        1.000       1.000       1.000      0.5000      3.4536E-06 -6.9523E-07 -4.0741E-06  6.8029E-07  2.6344E-07
        3524        1.000       1.000       1.000      0.5000     -1.0411E-08 -1.4452E-07 -1.9482E-07 -4.6563E-07 -6.8875E-08
        3525        1.000       1.000       1.000      0.5000      3.0447E-08 -2.6232E-08  3.3443E-07 -1.5454E-07  1.7923E-07
        3526        1.000       1.000       1.000      0.5000      1.1974E-06 -8.0574E-07  3.1408E-08 -2.8763E-07  1.2994E-06
        3527        1.000       1.000       1.000      0.5000      4.9479E-09  1.3390E-07  2.1345E-07  6.5016E-08  1.3485E-07
        3528        1.000       1.000       1.000      0.5000      6.8971E-07  3.3072E-07 -7.0000E-07  2.0387E-08  7.5541E-07
        3529        1.000       1.000       1.000      0.5000      6.5985E-06 -1.4029E-06 -3.0612E-06 -7.8705E-07  1.4283E-06
        3530        1.000       1.000       1.000      0.5000     -1.7779E-07 -2.3445E-07  4.7519E-07 -2.4389E-08  2.4599E-07
        3531        1.000       1.000       1.000      0.5000     -1.2381E-06  3.5671E-07 -7.0043E-07 -1.3401E-06 -1.0768E-06
        3532        1.000       1.000       1.000      0.5000     -5.7010E-06  1.3457E-06  4.2688E-06 -1.9059E-06  1.0033E-06
        3533        1.000       1.000       1.000      0.5000     -3.8200E-07 -1.5526E-06 -1.6155E-06 -6.0659E-07 -8.5139E-07
        3534        1.000       1.000       1.000      0.5000      3.7396E-06 -2.0135E-06  3.1345E-06 -7.5806E-07  1.4714E-06
        3535        1.000       1.000       1.000      0.5000     -3.6524E-08 -4.7102E-07 -5.7991E-07  4.8778E-07  2.5642E-07
        3536        1.000       1.000       1.000      0.5000      4.6542E-07  1.3703E-07  6.9946E-07 -8.8908E-08  2.7625E-08
        3537        1.000       1.000       1.000      0.5000     -1.1130E-06  1.6363E-06  3.8150E-06  1.7060E-06  8.5977E-08
        3538        1.000       1.000       1.000      0.5000      6.0390E-07  3.4462E-09 -1.5262E-06 -6.8176E-07  2.5977E-07
        3539        1.000       1.000       1.000      0.5000      2.0347E-06  1.6317E-06  2.2809E-06 -1.7914E-06  1.3785E-06
        3540        1.000       1.000       1.000      0.5000      3.4502E-06  1.0126E-07 -1.0582E-06 -2.0349E-07 -1.2005E-06
        3541        1.000       1.000       1.000      0.5000      7.8111E-06 -8.6252E-07  2.6266E-06 -2.8167E-06  6.1784E-07
        3542        1.000       1.000       1.000      0.5000      5.8049E-07 -5.1334E-07 -4.5513E-07  2.2638E-07 -1.1136E-07
        3543        1.000       1.000       1.000      0.5000     -4.7883E-07  7.9709E-08 -1.1984E-07  3.3599E-07 -1.4430E-07
        3544        1.000       1.000       1.000      0.5000      4.3866E-08  3.4339E-08 -9.1229E-08  1.9583E-07  1.1115E-07
        3545        1.000       1.000       1.000      0.5000     -8.9583E-07 -2.4399E-07 -1.5456E-06  9.6499E-08 -3.2016E-07
        3546        1.000       1.000       1.000      0.5000      1.5581E-06  1.3168E-07 -7.7678E-07 -6.2739E-07  1.7223E-08
        3547        1.000       1.000       1.000      0.5000     -1.3025E-06 -2.7710E-07  1.0203E-06  7.5678E-08 -4.7820E-07
        3548        1.000       1.000       1.000      0.5000      1.4121E-05  3.6424E-06 -2.6069E-06 -1.1464E-06 -2.5724E-06
        3549        1.000       1.000       1.000      0.5000     -2.7155E-07 -6.5745E-07  4.8833E-06 -2.4357E-06  7.6478E-07
        3550        1.000       1.000       1.000      0.5000      7.5152E-07 -8.4033E-07 -2.6005E-06 -1.1343E-06  2.3688E-07
        3551        1.000       1.000       1.000      0.5000     -7.3596E-07 -2.3284E-07  4.7158E-07  4.2499E-07 -3.5893E-07
        3552        1.000       1.000       1.000      0.5000      5.8396E-08  1.9597E-07 -3.8413E-07 -3.9806E-07 -1.1758E-07
        3553        1.000       1.000       1.000      0.5000     -1.3013E-05  2.2990E-06  1.5973E-06  8.1131E-07 -7.5401E-07
        3554        1.000       1.000       1.000      0.5000      5.1925E-07 -4.2547E-07 -7.1563E-07 -4.6963E-07  1.3124E-07
        3555        1.000       1.000       1.000      0.5000      1.3760E-07 -4.5519E-07  9.8469E-08 -2.2908E-07 -3.0468E-07
        3556        1.000       1.000       1.000      0.5000      1.5540E-08 -2.6287E-08 -6.1892E-09  3.5627E-08 -4.3701E-08
        3557        1.000       1.000       1.000      0.5000     -4.0095E-08  6.3306E-08 -3.4153E-08  6.6376E-08  7.3472E-08
        3558        1.000       1.000       1.000      0.5000      1.5718E-05  4.8771E-06 -6.3999E-06 -5.1946E-06 -3.9826E-06
        3559        1.000       1.000       1.000      0.5000     -4.5840E-08 -9.2274E-08 -8.5518E-08  3.6583E-07 -6.0213E-07
        3560        1.000       1.000       1.000      0.5000     -1.4359E-08 -5.8800E-08 -8.2475E-07 -5.4581E-07 -5.1575E-07
        3561        1.000       1.000       1.000      0.5000      4.5337E-07  3.4742E-07  1.4058E-07  1.1438E-06  4.8572E-07
        3562        1.000       1.000       1.000      0.5000     -8.1759E-06  5.4339E-07 -7.4070E-06  1.7961E-07  1.3453E-06
        3563        1.000       1.000       1.000      0.5000     -1.5084E-05  2.4874E-06  2.7385E-06  2.4391E-07  3.1208E-06
        3564        1.000       1.000       1.000      0.5000     -3.2789E-06  7.0672E-07 -2.2686E-06  7.6071E-08 -2.6183E-07
        3565        1.000       1.000       1.000      0.5000      1.5817E-05  1.6414E-06 -1.9681E-06 -1.6413E-06 -3.2618E-06
        3566        1.000       1.000       1.000      0.5000     -1.1773E-07  4.6590E-07  1.9564E-07 -1.6921E-08  1.0825E-08
        3567        1.000       1.000       1.000      0.5000      7.6764E-08 -3.1652E-07 -1.4466E-06 -7.0776E-07 -3.6596E-07
        3568        1.000       1.000       1.000      0.5000     -1.7377E-06 -1.4705E-06  2.3747E-06  1.9828E-06  9.8573E-07
        3569        1.000       1.000       1.000      0.5000     -8.5939E-06 -1.2057E-06 -1.3744E-06 -8.4001E-07  7.4901E-07
        3570        1.000       1.000       1.000      0.5000      2.0244E-06  1.0136E-06  2.1022E-06  4.3964E-08 -9.2999E-07
        3571        1.000       1.000       1.000      0.5000     -3.7280E-06 -7.1107E-07  1.4798E-07  2.2739E-07  2.4376E-08
        3572        1.000       1.000       1.000      0.5000      1.8985E-06 -2.9256E-06  8.2345E-07 -1.6475E-06  8.8379E-07
        3573        1.000       1.000       1.000      0.5000      5.6920E-06  7.3158E-06  3.7071E-06 -1.2070E-06  2.3690E-06
        3574        1.000       1.000       1.000      0.5000      5.4412E-08  8.5185E-07 -8.0663E-07  6.7080E-07 -8.2303E-07
        3575        1.000       1.000       1.000      0.5000     -2.2531E-06 -9.7322E-07  1.4473E-06  1.6976E-07  7.2379E-07
        3576        1.000       1.000       1.000      0.5000      3.7379E-07 -1.7137E-07 -9.5439E-06 -5.5891E-06 -1.0942E-06
        3577        1.000       1.000       1.000      0.5000      2.0456E-07  2.0434E-07  4.1777E-07  4.5977E-07  1.5025E-06
        3578        1.000       1.000       1.000      0.5000     -1.1632E-06 -1.3040E-09  1.8551E-06  3.1339E-06 -2.4334E-06
        3579        1.000       1.000       1.000      0.5000      8.5419E-07  7.0085E-07 -3.7698E-06 -2.1714E-07  6.0443E-07
        3580        1.000       1.000       1.000      0.5000     -8.3939E-09  3.1037E-09  5.8094E-08 -1.8035E-09 -1.0494E-08
        3581        1.000       1.000       1.000      0.5000     -8.2139E-07 -2.1698E-07 -5.3568E-07 -1.0383E-07 -1.7946E-07
        3582        1.000       1.000       1.000      0.5000     -7.9904E-08 -4.0644E-07 -1.0334E-07 -2.4441E-07  1.3806E-07
        3583        1.000       1.000       1.000      0.5000     -3.1680E-07  1.9147E-07 -7.7726E-07  7.6319E-07 -7.0404E-07
        3584        1.000       1.000       1.000      0.5000      9.2487E-08  6.6248E-07  1.6279E-07 -5.7147E-07  9.4223E-07
        3585        1.000       1.000       1.000      0.5000      9.0309E-06  7.8670E-07  2.2845E-06  6.1042E-07 -3.3036E-06
        3586        1.000       1.000       1.000      0.5000     -1.1335E-08 -7.0535E-07 -1.6083E-06  1.9207E-07  8.8853E-07
        3587        1.000       1.000       1.000      0.5000     -1.3173E-05 -6.6163E-07 -8.4346E-07  2.7605E-06  7.8310E-07
        3588        1.000       1.000       1.000      0.5000      1.0279E-05 -2.0182E-06  5.1803E-06 -6.5699E-06 -3.3154E-06
        3589        1.000       1.000       1.000      0.5000      2.9601E-06 -3.3503E-06  9.6042E-07  3.3219E-06  4.5318E-07
        3590        1.000       1.000       1.000      0.5000      1.4207E-06 -4.8783E-07 -4.9186E-09 -1.1624E-07 -3.8138E-07
        3591        1.000       1.000       1.000      0.5000      2.3898E-08  5.3710E-08  6.1265E-08 -8.2845E-08  1.6935E-08
        3592        1.000       1.000       1.000      0.5000      6.8442E-07 -1.7422E-06  9.1158E-07 -1.2282E-06 -5.1908E-07
        3593        1.000       1.000       1.000      0.5000      5.3032E-08 -1.0314E-06 -1.3208E-06  2.6690E-07 -6.2203E-07
        3594        1.000       1.000       1.000      0.5000     -1.5179E-06 -7.0859E-07 -5.8490E-07  1.6970E-07  5.6372E-07
        3595        1.000       1.000       1.000      0.5000     -6.5955E-06  1.1830E-06 -5.5040E-07  2.0285E-06 -3.6525E-07
        3596        1.000       1.000       1.000      0.5000      1.9561E-06 -1.0398E-07 -3.3132E-07  1.1928E-07 -3.8753E-08
        3597        1.000       1.000       1.000      0.5000      3.6872E-07  3.7234E-07  3.6775E-07 -4.3882E-08 -4.3247E-08
        3598        1.000       1.000       1.000      0.5000      1.7316E-07 -7.5769E-09  2.1627E-07  3.2784E-08  1.2245E-07
        3599        1.000       1.000       1.000      0.5000      1.0255E-06 -2.8561E-07  2.9106E-07  3.5716E-07 -2.8235E-07
        3600        1.000       1.000       1.000      0.5000     -8.5263E-07 -5.3472E-07  3.0042E-07 -3.7167E-07  2.6838E-08
        3601        1.000       1.000       1.000      0.5000     -1.8929E-06 -2.7085E-06 -3.6598E-06  2.1259E-06  1.8481E-07
        3602        1.000       1.000       1.000      0.5000      1.7148E-06 -1.0885E-06  2.0169E-06 -8.8805E-07 -1.4180E-06
        3603        1.000       1.000       1.000      0.5000     -2.6964E-06 -1.3915E-07  2.1299E-07  8.7478E-07 -4.5440E-07
        3604        1.000       1.000       1.000      0.5000     -6.1309E-08 -2.9685E-09 -1.8945E-07  2.3726E-07 -1.2517E-07
        3605        1.000       1.000       1.000      0.5000     -1.6572E-06  1.0337E-06  2.0898E-06  7.5452E-07 -4.0827E-07
        3606        1.000       1.000       1.000      0.5000     -8.2514E-09  5.5303E-08  6.6452E-07  4.4343E-08 -9.2601E-08
        3607        1.000       1.000       1.000      0.5000      7.2432E-06 -2.0325E-07  5.7373E-07 -2.5952E-06 -2.9878E-06
        3608        1.000       1.000       1.000      0.5000     -1.6930E-06 -3.1080E-07  2.7469E-08  2.2824E-07 -1.6190E-07
        3609        1.000       1.000       1.000      0.5000      3.9418E-08  1.2993E-07 -3.3766E-08  9.5365E-08 -6.0431E-09
        3610        1.000       1.000       1.000      0.5000      2.0177E-07 -4.3882E-07 -1.0430E-06  5.0559E-07 -4.8924E-08
        3611        1.000       1.000       1.000      0.5000     -3.2069E-08 -1.1720E-07 -2.3639E-07  9.5273E-08 -1.0830E-07
        3612        1.000       1.000       1.000      0.5000      1.3662E-07 -4.5555E-08 -1.1139E-08  1.3527E-07  1.5304E-07
        3613        1.000       1.000       1.000      0.5000      3.1361E-07 -5.3023E-07 -4.4073E-07  1.2776E-07  1.4280E-07
        3614        1.000       1.000       1.000      0.5000     -8.7328E-06  5.7479E-07  1.6270E-06  4.4657E-06 -3.2012E-06
        3615        1.000       1.000       1.000      0.5000      1.6774E-07 -1.1048E-07 -1.4182E-06 -8.0078E-07 -1.7178E-07
        3616        1.000       1.000       1.000      0.5000     -1.1609E-06 -6.6618E-06  4.0514E-06 -1.0826E-06  1.8977E-06
        3617        1.000       1.000       1.000      0.5000      1.2985E-06 -6.3970E-07 -4.7172E-07  1.0873E-06  9.3865E-07
        3618        1.000       1.000       1.000      0.5000      5.4971E-08  5.1178E-07 -1.1177E-06  8.4245E-07 -9.4885E-07
        3619        1.000       1.000       1.000      0.5000     -1.7157E-07 -1.7695E-06  2.0850E-06  4.2991E-07  7.4466E-07
        3620        1.000       1.000       1.000      0.5000      5.5110E-07  1.1685E-06  1.4040E-06  4.2747E-07 -5.8354E-07
        3621        1.000       1.000       1.000      0.5000      5.3423E-07 -3.7545E-07  1.4722E-06 -3.4117E-07 -1.3572E-08
        3622        1.000       1.000       1.000      0.5000     -8.5863E-08  2.0961E-07  5.5892E-07 -9.9966E-08 -4.2200E-07
        3623        1.000       1.000       1.000      0.5000     -3.3612E-08 -2.1382E-08  4.7317E-07  4.3738E-08 -2.2167E-08

 MAXIMUM           1.000       1.000       1.000      0.5000      1.7612E-05  1.0498E-05  1.0176E-05  5.8758E-06  5.2665E-06
 ELEMENT               2116        2849        3282        2820        1741        2687        2258        3282        2859 

 MINIMUM           1.000       1.000       1.000      0.5000     -2.7166E-05 -7.9633E-06 -1.2817E-05 -7.4423E-06 -5.3469E-06
 ELEMENT               3558        2846        2859        2116        1118        2114        2677        2003        3282 


          THE ANALYSIS HAS BEEN COMPLETED



                              ANALYSIS COMPLETE
                              WITH     24 WARNING MESSAGES ON THE DAT FILE



     JOB TIME SUMMARY
       USER TIME (SEC)      =   1.9000    
       SYSTEM TIME (SEC)    =  0.10000    
       TOTAL CPU TIME (SEC) =   2.0000    
       WALLCLOCK TIME (SEC) =          2
