1

   Abaqus 6.14-1                                  Date 13-Jan-2019   Time 18:12:21
   For use at OREGON STATE UNIVERSITY under license from Dassault Systemes or its subsidiary.



                         The Abaqus Software is a product of:

                           Dassault Systemes Simulia Corp.
                                 Rising Sun Mills
                                 166 Valley Street
                           Providence, RI 02909-2499, USA
 


                   Available for internal use at OREGON STATE UNIVERSITY. 
                   The Abaqus Online Support System is accessible
                   through the "My Support" section of the SIMULIA
                   Home Page at http://www.simulia.com.

                   Support policies for academic licenses are described
                   on the SIMULIA web site at
                   http://www.3ds.com/products/simulia/academics/
 
                          On machine whitestones 
                          you are authorized to run
                          Abaqus/Standard until 15-Aug-2019

                          Your site id is: 200000000024345 


 
                    For assistance or any other information you may
                    obtain contact information for your local office
                    from the world wide web at:

                      http://www.3ds.com/products/simulia/locations/

 
                * * * * * * * * * * * * * * * * * * * * * * * * * * * * * * 
                *                                                         * 
                *                   *****************                     * 
                *                   *  N O T I C E  *                     * 
                *                   *****************                     * 
                *                                                         * 
                *                                                         * 
                *                    Abaqus 6.14-1                        * 
                *                                                         * 
                *          BUILD ID: 2014_06_04-15.11.02 134264           * 
                *                                                         * 
                *                                                         * 
                *  Please make sure you are using release 6.14 manuals    * 
                *  plus the notes accompanying this release.              * 
                *                                                         * 
                *                                                         * 
                *                                                         * 
                *                                                         * 
                *                                                         * 
                *   This program may not be used for commercial purposes  * 
                *           without payment of a commercial fee.          * 
                *                                                         * 
                * * * * * * * * * * * * * * * * * * * * * * * * * * * * * * 


 



     PROCESSING PART, INSTANCE, AND ASSEMBLY INFORMATION
   *******************************************************


     END PROCESSING PART, INSTANCE, AND ASSEMBLY INFORMATION
   ***********************************************************




     OPTIONS BEING PROCESSED
   ***************************


  *Heading
  *Node
  *Element, type=C3D10
  *Nset, nset=ASSEMBLY_PART-1-1__PICKEDSET8
  *Elset, elset=ASSEMBLY_PART-1-1__PICKEDSET8
  *Elset, elset=ASSEMBLY_PART-1-1__SURF-1_S1
  *Elset, elset=ASSEMBLY_PART-1-1__SURF-1_S2
  *Elset, elset=ASSEMBLY_PART-1-1__SURF-1_S3
  *Elset, elset=ASSEMBLY_PART-1-1__SURF-1_S4
  *Nset, nset=ASSEMBLY_SET-BC
  *Elset, elset=ASSEMBLY_SET-BC
  *surface, type=ELEMENT, name=ASSEMBLY_PART-1-1_SURF-1
  *surface, type=ELEMENT, name=ASSEMBLY_PART-1-1_SURF-1
  *material, name=MATERIAL-1
  *hyperelastic, neohooke
  *material, name=MATERIAL-2
  *usermaterial, constants=2
  *solidsection, elset=ASSEMBLY_PART-1-1__PICKEDSET8, material=MATERIAL-2
  *boundary
  *solidsection, elset=ASSEMBLY_PART-1-1__PICKEDSET8, material=MATERIAL-2
  *surface, type=ELEMENT, name=ASSEMBLY_PART-1-1_SURF-1
  *output, field
  *output, history, variable=PRESELECT
  *elementoutput, directions=NO
  *output, field
  *output, history, variable=PRESELECT
  *elementoutput, directions=NO
  *output, field
  *output, history, variable=PRESELECT
  *elementoutput, directions=NO
  *Step, name=Step-1, nlgeom=YES
  *output, field
  *output, history, variable=PRESELECT
  *Step, name=Step-1, nlgeom=YES
  *Step, name=Step-1, nlgeom=YES
  *static
  *boundary
  *output, field
  *nodeoutput
  *elementoutput, directions=NO
  *elprint

 ***WARNING: OUTPUT REQUEST DG IS ONLY AVAILABLE FOR *HYPERELASTIC/FOAM AND 
             *USER MATERIAL.
  *output, history, variable=PRESELECT
  *endstep

 ***WARNING: OUTPUT REQUEST V IS NOT AVAILABLE FOR THIS TYPE OF ANALYSIS

 ***WARNING: OUTPUT REQUEST VF IS NOT AVAILABLE FOR THIS TYPE OF ANALYSIS

 ***WARNING: OUTPUT REQUEST VT IS NOT AVAILABLE FOR THIS TYPE OF ANALYSIS

 ***WARNING: THE REQUEST FOR MISES OUTPUT WILL BE REPLACED BY A REQUEST FOR S 
             OUTPUT

 ***WARNING: OUTPUT VARIABLE ALPHAN HAS NO COMPONENTS IN THIS ANALYSIS FOR 
             ELEMENT TYPE C3D10

 ***WARNING: OUTPUT REQUEST CS11 IS NOT AVAILABLE FOR ELEMENT TYPE C3D10

 ***WARNING: OUTPUT REQUEST CTSHR IS NOT AVAILABLE FOR ELEMENT TYPE C3D10

 ***WARNING: OUTPUT REQUEST SEPE IS NOT AVAILABLE FOR ELEMENT TYPE C3D10

 ***WARNING: OUTPUT REQUEST SPE IS NOT AVAILABLE FOR ELEMENT TYPE C3D10

 ***WARNING: OUTPUT REQUEST TRIAX IS NOT AVAILABLE FOR THE MATERIAL FOR ELEMENT 
             TYPE C3D10

 ***WARNING: OUTPUT REQUEST TSHR IS NOT AVAILABLE FOR ELEMENT TYPE C3D10

 ***WARNING: OUTPUT REQUEST VE IS NOT AVAILABLE FOR THE MATERIAL FOR ELEMENT 
             TYPE C3D10

 ***WARNING: OUTPUT REQUEST VEEQ IS NOT AVAILABLE FOR THE MATERIAL FOR ELEMENT 
             TYPE C3D10

 ***WARNING: OUTPUT REQUEST VS IS NOT AVAILABLE FOR THE MATERIAL FOR ELEMENT 
             TYPE C3D10

 ***WARNING: OUTPUT REQUEST ESF1 IS NOT AVAILABLE FOR ELEMENT TYPE C3D10

 ***WARNING: OUTPUT REQUEST SALPHA IS NOT AVAILABLE FOR ELEMENT TYPE C3D10

 ***WARNING: OUTPUT REQUEST SE IS NOT AVAILABLE FOR ELEMENT TYPE C3D10

 ***WARNING: OUTPUT REQUEST SEE IS NOT AVAILABLE FOR ELEMENT TYPE C3D10

 ***WARNING: OUTPUT REQUEST SEP IS NOT AVAILABLE FOR ELEMENT TYPE C3D10

 ***WARNING: OUTPUT REQUEST SF IS NOT AVAILABLE FOR ELEMENT TYPE C3D10

 ***WARNING: OUTPUT REQUEST SSAVG IS NOT AVAILABLE FOR ELEMENT TYPE C3D10

 ***WARNING: OUTPUT REQUEST NFORCSO IS NOT AVAILABLE FOR ELEMENT TYPE C3D10
  *Step, name=Step-1, nlgeom=YES
  *static
  *boundary
  *endstep

 ***WARNING: USER SUBROUTINE UMAT WILL BE USED WITH THE STAVEV ARRAY 
             DIMENSIONED TO ZERO SINCE THE *DEPVAR OPTION IS NOT USED WITH THIS 
             MATERIAL. CONSEQUENTLY, DEFINING STATEV ENTRIES IN SUBROUTINE UMAT 
             WILL CAUSE CODE EXECUTION ERRORS.


                              E L E M E N T,   N O D E,   A N D   S U R F A C E   M A P S


**NOTE: This section may not include complete information about
        members of sets and surfaces. Use *PREPRINT, MODEL=YES 
        in order to get the set and surface members printed    
        under the following sections:                          
            - E L E M E N T   S E T S                          
            - N O D E   S E T S                                
            - S U R F A C E   D E F I N I T I O N S .          


Assembly name: ASSEMBLY
Number of instances: 1

ASSEMBLY LEVEL
  node sets:
    SET-BC:
      instance name: PART-1-1
      number of nodes: 1310
      nodes: 
        1 2 3 4 5 6 7 8 9 10 11 12 13 14 15 16 17 18 19 20 21 22 23 24
        25 26 27 28 29 30 31 32 33 34 35 36 37 38 39 40 41 42 43 44 45
        46 47 48 49 50 51 52 53 54 55 56 57 58 59 60 61 62 63 64 65 66
        67 68 69 70 71 72 73 74 75 76 77 78 79 80 81 82 83 84 85 86 87
        88 89 90 91 92 93 94 95 96 97 98 99 100 101 102 103 104 105 106
        107 108 109 110 111 112 113 114 115 116 117 118 119 120 121 122
        123 124 125 126 127 128 129 130 131 132 133 134 135 136 137 138
        139 140 141 142 143 144 145 146 147 148 149 150 151 152 153 154
        155 156 157 158 159 160 161 162 163 164 165 166 167 168 169 170
        171 172 173 174 175 176 177 178 179 180 181 182 183 184 185 186
        187 188 189 190 191 192 193 194 195 196 197 198 199 200 201 202
        203 204 205 206 207 208 209 210 211 212 213 214 215 216 217 218
        219 220 221 222 223 224 225 226 227 228 229 230 231 232 233 234
        235 236 237 238 239 240 241 242 243 244 245 246 247 248 249 250
        251 252 253 254 255 256 257 258 259 260 261 262 263 264 265 266
        267 268 269 270 271 272 273 274 275 276 277 278 279 280 281 282
        283 284 285 286 287 288 289 290 291 292 293 294 295 296 297 298
        299 300 301 302 303 304 305 306 307 308 309 310 311 312 313 314
        315 316 317 318 319 320 321 322 323 324 325 326 327 328 329 838
        842 843 875 877 879 909 917 919 921 939 954 956 994 996 998 1009
        1011 1013 1025 1119 1121 1123 1193 1202 1204 1206 1263 1283 1285
        1287 1379 1381 1383 1410 1423 1438 1445 1484 1486 1488 1491 1592
        1598 1613 1705 1707 1709 1805 1807 1818 1820 1822 1842 1850 1880
        1882 1884 1912 1914 1916 1928 1950 1951 1952 1966 1977 1979 1980
        1994 1996 1998 2064 2065 2066 2083 2085 2087 2122 2129 2131 2133
        2166 2168 2171 2179 2181 2187 2190 2261 2269 2272 2273 2275 2315
        2344 2346 2354 2356 2358 2390 2396 2397 2408 2424 2432 2549 2551
        2553 2555 2557 2558 2561 2569 2592 2594 2596 2598 2604 2615 2616
        2646 2660 2668 2676 2695 2701 2731 2733 2735 2753 2754 2755 2772
        2787 2789 2791 2808 2828 2853 2860 2864 2866 2872 2884 2900 2901
        2903 2918 2923 2933 2934 2935 2957 2961 2962 2967 2973 2974 2980
        2983 2984 2993 2996 3013 3015 3017 3020 3026 3069 3123 3128 3147
        3149 3151 3181 3193 3219 3224 3226 3228 3233 3234 3235 3247 3248
        3272 3297 3310 3312 3367 3375 3377 3379 3390 3392 3407 3408 3415
        3417 3445 3462 3468 3469 3477 3502 3505 3506 3521 3522 3524 3527
        3550 3560 3561 3563 3565 3568 3570 3578 3592 3593 3607 3610 3611
        3655 3657 3659 3661 3663 3665 3668 3671 3692 3695 3696 3697 3705
        3707 3714 3716 3720 3721 3741 3770 3776 3787 3802 3810 3816 3822
        3827 3835 3844 3849 3851 3864 3875 3883 3915 3923 3931 3932 3942
        3945 3946 3953 3970 3976 3984 3995 3996 3998 4000 4002 4006 4008
        4010 4023 4025 4037 4042 4045 4046 4056 4059 4060 4062 4064 4066
        4073 4074 4084 4113 4117 4138 4139 4141 4142 4143 4145 4148 4149
        4164 4167 4176 4181 4187 4188 4190 4206 4212 4235 4243 4244 4247
        4248 4255 4256 4257 4258 4260 4265 4266 4268 4269 4270 4271 4273
        4275 4277 4278 4279 4281 4284 4287 4289 4291 4294 4297 4300 4301
        4303 4304 4306 4307 4309 4311 4313 4315 4317 4322 4329 4330 4334
        4336 4338 4339 4340 4341 4344 4346 4349 4351 4355 4358 4359 4360
        4362 4364 4366 4368 4369 4370 4372 4375 4377 4379 4380 4382 4384
        4388 4389 4390 4392 4400 4402 4404 4405 4406 4408 4417 4423 4425
        4427 4428 4429 4430 4431 4432 4434 4436 4437 4439 4441 4442 4444
        4445 4446 4447 4449 4450 4451 4453 4454 4460 4461 4463 4465 4467
        4468 4469 4473 4474 4475 4476 4477 4479 4481 4483 4484 4485 4487
        4488 4489 4491 4493 4494 4499 4501 4502 4503 4504 4505 4506 4507
        4508 4512 4514 4518 4519 4520 4523 4524 4525 4527 4529 4530 4531
        4532 4534 4536 4537 4539 4541 4543 4545 4546 4547 4550 4554 4556
        4559 4560 4564 4566 4568 4569 4570 4571 4572 4573 4574 4576 4579
        4581 4590 4591 4593 4595 4597 4599 4600 4601 4603 4604 4606 4608
        4609 4610 4611 4612 4613 4614 4615 4618 4621 4622 4625 4626 4627
        4629 4630 4632 4634 4635 4637 4639 4640 4641 4642 4645 4646 4647
        4648 4650 4651 4653 4654 4655 4658 4660 4663 4664 4665 4666 4667
        4668 4671 4672 4673 4674 4676 4678 4679 4681 4682 4684 4686 4687
        4693 4694 4696 4697 4699 4701 4702 4704 4706 4707 4708 4709 4712
        4713 4719 4722 4723 4725 4727 4730 4733 4735 4738 4739 4740 4742
        4744 4746 4747 4753 4754 4755 4756 4757 4759 4760 4761 4762 4763
        4764 4765 4766 4767 4774 4777 4778 4780 4781 4782 4783 4785 4786
        4789 4794 4796 4797 4798 4799 4800 4801 4802 4804 4805 4807 4812
        4813 4815 4824 4826 4828 4830 4833 4837 4838 4840 4841 4842 4845
        4846 4854 4855 4856 4859 4865 4867 4868 4871 4872 4873 4875 4876
        4877 4882 4883 4885 4886 4888 4890 4891 4892 4894 4897 4903 4904
        4905 4906 4908 4910 4911 4912 4914 4915 4921 4922 4923 4924 4927
        4931 4937 4939 4941 4942 4944 4945 4946 4947 4949 4952 4953 4954
        4955 4957 4958 4960 4962 4964 4966 4968 4974 4976 4978 4980 4981
        4988 4997 4998 4999 5002 5006 5011 5013 5014 5017 5018 5019 5020
        5021 5023 5027 5030 5032 5034 5036 5038 5040 5041 5043 5045 5046
        5048 5050 5051 5052 5055 5058 5059 5061 5063 5065 5067 5069 5071
        5072 5073 5074 5076 5078 5079 5080 5081 5084 5085 5090 5091 5092
        5093 5094 5095 5097 5100 5101 5102 5106 5110 5111 5113 5116 5121
        5122 5125 5126 5130 5131 5132 5134 5136 5137 5138 5139 5140 5141
        5146 5148 5154 5156 5157 5158 5159 5160 5168 5170 5172 5174 5175
        5182 5186 5188 5189 5191 5192 5194 5195 5196 5211 5213 5219 5221
        5226 5227 5232 5233 5234 5236 5237 5239 5240 5242 5245 5246 5247
        5253 5254 5255 5256 5257 5258 5260 5261 5262 5269 5270 5278 5280
        5286 5294 5295 5297 5298 5299 5300 5303 5307 5311 5313 5314 5317
        5318 5319 5320 5324 5325 5328 5330 5332 5334 5335 5336 5337 5338
        5341 5345 5346 5347 5348 5354 5357 5360 5361 5362 5363 5364 5366
        5368 5369 5371 5373 5374 5375 5376 5377 5378 5379 5380 5382 5387
        5391 5392 5394 5396 5397 5398 5399 5400 5401 5402 5404 5405 5406
        5407 5408 5409 5411 5413 5414 5415 5416 5417 5419 5420 5421 5422
        5424 5425 5427 5428 5429 5430 5434 5436 5437 5438 5439 5440 5441
        5442 5444 5446 5447 5448 5449 5451 5452 5453 5454 5456 5457 5458
        5459 5460 5461 5463 5464 5465 5466 5467 5469 5470 5471 5472 5473
        5475 5476 5477 5479 5480 5481 5482 5483 5485 5486 5487 5489 5490
        5491 5493 5495 5496 5497 5498 5499 5500 5502 5503 5504 5505 5506
        5507 5508 5509 5510 5511 5512 5513 5514 5515 5516 5517 5518 5519
        5520 5521

  element sets:
    SET-BC:
      instance name: PART-1-1
      number of elements: 654
      elements: 
        13 21 30 51 54 80 101 121 145 177 244 289 293 314 326 339 348
        360 392 399 417 427 458 488 585 586 602 607 667 674 696 757 769
        784 803 815 824 886 931 933 961 1016 1035 1087 1118 1173 1174
        1188 1291 1337 1365 1368 1375 1423 1425 1496 1500 1514 1523 1538
        1610 1614 1621 1622 1623 1629 1630 1631 1632 1634 1640 1643 1647
        1648 1654 1658 1659 1660 1662 1663 1676 1681 1682 1684 1688 1693
        1694 1695 1697 1702 1703 1708 1714 1715 1716 1718 1719 1720 1724
        1725 1728 1729 1732 1733 1736 1739 1741 1742 1743 1744 1746 1748
        1752 1753 1760 1761 1762 1763 1768 1772 1774 1775 1778 1782 1783
        1784 1785 1791 1795 1796 1797 1800 1801 1813 1814 1819 1820 1823
        1827 1828 1829 1831 1832 1833 1835 1839 1841 1846 1847 1848 1851
        1852 1854 1856 1857 1858 1862 1864 1866 1868 1873 1875 1876 1877
        1878 1882 1886 1888 1890 1892 1893 1900 1903 1908 1911 1912 1913
        1915 1917 1918 1929 1931 1932 1937 1939 1943 1945 1953 1954 1955
        1956 1957 1959 1960 1964 1967 1968 1969 1973 1975 1981 1982 1983
        1984 1985 1986 1989 2006 2012 2014 2019 2026 2028 2034 2036 2041
        2047 2048 2052 2053 2055 2056 2057 2062 2069 2070 2071 2073 2079
        2083 2085 2086 2091 2092 2095 2096 2098 2099 2105 2108 2109 2111
        2113 2114 2116 2117 2126 2129 2143 2144 2147 2160 2165 2170 2173
        2179 2180 2182 2183 2184 2188 2189 2190 2192 2194 2198 2200 2201
        2204 2207 2208 2210 2212 2214 2218 2219 2222 2223 2224 2229 2231
        2236 2244 2246 2252 2257 2260 2264 2270 2272 2277 2280 2281 2282
        2284 2289 2294 2295 2300 2303 2310 2315 2317 2327 2337 2338 2347
        2360 2361 2373 2375 2380 2384 2388 2391 2396 2397 2405 2406 2408
        2409 2410 2412 2413 2417 2423 2424 2427 2428 2430 2450 2451 2459
        2461 2462 2463 2466 2487 2489 2493 2503 2504 2505 2512 2519 2529
        2536 2538 2539 2541 2546 2547 2552 2557 2560 2561 2566 2567 2573
        2574 2575 2577 2585 2591 2595 2597 2599 2602 2607 2614 2617 2619
        2620 2629 2630 2633 2637 2643 2644 2652 2655 2658 2659 2662 2663
        2665 2666 2667 2668 2671 2679 2684 2686 2688 2695 2696 2698 2700
        2702 2711 2713 2723 2725 2726 2728 2739 2741 2748 2749 2757 2758
        2760 2765 2766 2772 2776 2777 2778 2782 2784 2787 2799 2800 2801
        2803 2808 2810 2813 2814 2816 2817 2820 2826 2830 2832 2835 2837
        2845 2846 2848 2849 2853 2862 2866 2869 2881 2884 2885 2887 2888
        2890 2913 2915 2922 2925 2932 2934 2935 2938 2940 2943 2944 2945
        2947 2955 2961 2964 2965 2976 2980 2983 2984 2985 2986 2987 2988
        2989 2996 2999 3000 3001 3004 3005 3006 3009 3012 3016 3021 3024
        3025 3033 3041 3046 3048 3052 3056 3057 3062 3063 3067 3075 3077
        3083 3091 3094 3096 3099 3102 3107 3114 3116 3118 3124 3127 3129
        3137 3142 3144 3146 3148 3153 3154 3161 3163 3164 3166 3172 3174
        3178 3179 3182 3183 3187 3188 3189 3192 3195 3201 3208 3218 3224
        3229 3232 3239 3240 3242 3245 3247 3248 3252 3257 3264 3266 3275
        3277 3281 3284 3288 3292 3293 3300 3301 3303 3306 3307 3311 3313
        3316 3320 3322 3323 3324 3327 3333 3334 3335 3339 3342 3346 3349
        3350 3351 3358 3360 3361 3368 3370 3375 3387 3388 3389 3390 3391
        3392 3399 3400 3404 3405 3407 3409 3415 3419 3420 3423 3425 3431
        3433 3435 3474 3475 3478 3479 3482 3486 3489 3492 3493 3495 3497
        3506 3513 3515 3522 3529 3532 3539 3540 3541 3547 3548 3553 3558
        3559 3560 3562 3563 3565 3568 3570 3571 3572 3574 3575 3585 3587
        3589 3590 3595 3599 3602 3603 3605 3607 3620

  Surfaces:

INSTANCE LEVEL
  node sets:
    Instance name: PART-1-1

  element sets:
    Instance name: PART-1-1

  Surfaces:
    Instance name: PART-1-1
      surface name: SURF-1
      type: element based
        face id = S4
        number of elements: 38
        elements:
          13 458 607 803 815 1087 1337 1368 1496 1514 1523 1622 1629
          1662 1681 1774 1800 1827 1835 1841 1957 1968 2026 2144 2347
          2360 2361 2463 2529 2619 2652 2665 2702 2723 2739 3114 3288
          3351
        face id = S3
        number of elements: 583
        elements:
          21 30 51 54 80 101 121 145 177 244 289 293 314 326 348 360 399
          417 427 488 585 586 602 667 674 696 757 769 824 886 931 961
          1016 1035 1118 1173 1174 1188 1291 1365 1425 1500 1610 1614
          1621 1623 1630 1631 1632 1634 1640 1643 1647 1648 1654 1658
          1659 1660 1676 1682 1684 1688 1693 1694 1695 1697 1702 1703
          1708 1714 1715 1716 1718 1719 1720 1724 1725 1728 1729 1732
          1733 1736 1739 1741 1742 1743 1744 1746 1748 1752 1753 1760
          1761 1763 1768 1772 1775 1778 1782 1783 1784 1785 1791 1795
          1796 1797 1801 1813 1814 1819 1820 1823 1828 1829 1831 1832
          1833 1839 1846 1847 1848 1851 1852 1854 1856 1857 1858 1862
          1864 1866 1868 1873 1875 1876 1877 1878 1886 1888 1890 1892
          1893 1900 1903 1908 1911 1912 1913 1915 1917 1918 1929 1931
          1932 1937 1939 1943 1945 1953 1954 1955 1956 1959 1960 1964
          1967 1969 1973 1975 1981 1982 1983 1984 1985 1986 1989 2006
          2012 2014 2019 2028 2034 2036 2041 2047 2048 2052 2053 2055
          2056 2057 2062 2069 2070 2071 2073 2079 2083 2085 2086 2091
          2092 2095 2096 2098 2099 2105 2108 2111 2113 2114 2116 2117
          2126 2129 2143 2147 2160 2165 2170 2173 2179 2180 2182 2183
          2184 2188 2189 2190 2194 2198 2200 2201 2204 2208 2210 2212
          2214 2218 2219 2222 2223 2224 2229 2231 2236 2244 2246 2252
          2257 2260 2264 2270 2272 2277 2280 2281 2282 2284 2289 2294
          2295 2300 2310 2315 2317 2327 2337 2338 2375 2380 2384 2388
          2391 2396 2397 2405 2406 2408 2409 2410 2412 2413 2417 2423
          2424 2428 2430 2450 2451 2461 2462 2466 2487 2489 2493 2503
          2504 2505 2512 2519 2538 2541 2546 2547 2552 2557 2560 2561
          2566 2567 2573 2574 2575 2577 2585 2591 2595 2597 2599 2602
          2607 2614 2617 2620 2629 2630 2633 2637 2643 2644 2655 2658
          2659 2662 2663 2667 2668 2671 2679 2684 2688 2695 2696 2698
          2700 2711 2713 2726 2728 2741 2748 2749 2757 2758 2760 2765
          2766 2776 2777 2778 2782 2784 2787 2799 2800 2801 2803 2808
          2810 2813 2814 2816 2817 2820 2826 2832 2835 2837 2845 2848
          2849 2853 2862 2866 2869 2881 2884 2885 2887 2888 2890 2913
          2915 2922 2925 2932 2934 2935 2938 2940 2943 2944 2945 2947
          2955 2961 2964 2965 2976 2980 2983 2984 2985 2986 2987 2988
          2989 2996 2999 3000 3001 3004 3005 3009 3012 3021 3024 3025
          3033 3041 3046 3048 3052 3056 3057 3062 3063 3067 3075 3077
          3083 3091 3094 3096 3099 3102 3107 3116 3118 3124 3127 3129
          3137 3142 3144 3146 3148 3153 3154 3161 3163 3164 3166 3172
          3174 3178 3179 3182 3183 3187 3188 3189 3192 3195 3201 3208
          3218 3224 3229 3232 3239 3240 3242 3245 3247 3248 3252 3257
          3264 3266 3275 3277 3281 3284 3292 3293 3301 3303 3307 3311
          3313 3316 3320 3322 3323 3324 3327 3333 3334 3335 3339 3342
          3346 3349 3358 3360 3361 3368 3370 3375 3387 3388 3389 3391
          3392 3399 3400 3404 3405 3407 3409 3415 3419 3420 3423 3425
          3431 3433 3435 3474 3475 3478 3479 3482 3486 3489 3492 3493
          3495 3497 3506 3513 3515 3522 3529 3532 3539 3540 3541 3547
          3548 3553 3558 3560 3562 3563 3565 3568 3570 3571 3572 3574
          3575 3585 3587 3589 3590 3595 3602 3603 3605 3607 3620
        face id = S2
        number of elements: 18
        elements:
          392 1663 1762 1882 2192 2207 2373 2427 2536 2666 2686 2830
          2846 3016 3306 3350 3390 3559
        face id = S1
        number of elements: 15
        elements:
          339 784 933 1375 1423 1538 2109 2303 2459 2539 2725 2772 3006
          3300 3599

GLOBAL TO LOCAL NODE AND ELEMENT MAPS
  Global     Local      
  node       node       
  number     number     
                        Instance name                                   
   1          1         PART-1-1                                        
   2          2         PART-1-1                                        
   3          3         PART-1-1                                        
   4          4         PART-1-1                                        
   5          5         PART-1-1                                        
   6          6         PART-1-1                                        
   7          7         PART-1-1                                        
   8          8         PART-1-1                                        
   9          9         PART-1-1                                        
   10         10        PART-1-1                                        
   11         11        PART-1-1                                        
   12         12        PART-1-1                                        
   13         13        PART-1-1                                        
   14         14        PART-1-1                                        
   15         15        PART-1-1                                        
   16         16        PART-1-1                                        
   17         17        PART-1-1                                        
   18         18        PART-1-1                                        
   19         19        PART-1-1                                        
   20         20        PART-1-1                                        
   21         21        PART-1-1                                        
   22         22        PART-1-1                                        
   23         23        PART-1-1                                        
   24         24        PART-1-1                                        
   25         25        PART-1-1                                        
   26         26        PART-1-1                                        
   27         27        PART-1-1                                        
   28         28        PART-1-1                                        
   29         29        PART-1-1                                        
   30         30        PART-1-1                                        
   31         31        PART-1-1                                        
   32         32        PART-1-1                                        
   33         33        PART-1-1                                        
   34         34        PART-1-1                                        
   35         35        PART-1-1                                        
   36         36        PART-1-1                                        
   37         37        PART-1-1                                        
   38         38        PART-1-1                                        
   39         39        PART-1-1                                        
   40         40        PART-1-1                                        
   41         41        PART-1-1                                        
   42         42        PART-1-1                                        
   43         43        PART-1-1                                        
   44         44        PART-1-1                                        
   45         45        PART-1-1                                        
   46         46        PART-1-1                                        
   47         47        PART-1-1                                        
   48         48        PART-1-1                                        
   49         49        PART-1-1                                        
   50         50        PART-1-1                                        
   51         51        PART-1-1                                        
   52         52        PART-1-1                                        
   53         53        PART-1-1                                        
   54         54        PART-1-1                                        
   55         55        PART-1-1                                        
   56         56        PART-1-1                                        
   57         57        PART-1-1                                        
   58         58        PART-1-1                                        
   59         59        PART-1-1                                        
   60         60        PART-1-1                                        
   61         61        PART-1-1                                        
   62         62        PART-1-1                                        
   63         63        PART-1-1                                        
   64         64        PART-1-1                                        
   65         65        PART-1-1                                        
   66         66        PART-1-1                                        
   67         67        PART-1-1                                        
   68         68        PART-1-1                                        
   69         69        PART-1-1                                        
   70         70        PART-1-1                                        
   71         71        PART-1-1                                        
   72         72        PART-1-1                                        
   73         73        PART-1-1                                        
   74         74        PART-1-1                                        
   75         75        PART-1-1                                        
   76         76        PART-1-1                                        
   77         77        PART-1-1                                        
   78         78        PART-1-1                                        
   79         79        PART-1-1                                        
   80         80        PART-1-1                                        
   81         81        PART-1-1                                        
   82         82        PART-1-1                                        
   83         83        PART-1-1                                        
   84         84        PART-1-1                                        
   85         85        PART-1-1                                        
   86         86        PART-1-1                                        
   87         87        PART-1-1                                        
   88         88        PART-1-1                                        
   89         89        PART-1-1                                        
   90         90        PART-1-1                                        
   91         91        PART-1-1                                        
   92         92        PART-1-1                                        
   93         93        PART-1-1                                        
   94         94        PART-1-1                                        
   95         95        PART-1-1                                        
   96         96        PART-1-1                                        
   97         97        PART-1-1                                        
   98         98        PART-1-1                                        
   99         99        PART-1-1                                        
   100        100       PART-1-1                                        
   101        101       PART-1-1                                        
   102        102       PART-1-1                                        
   103        103       PART-1-1                                        
   104        104       PART-1-1                                        
   105        105       PART-1-1                                        
   106        106       PART-1-1                                        
   107        107       PART-1-1                                        
   108        108       PART-1-1                                        
   109        109       PART-1-1                                        
   110        110       PART-1-1                                        
   111        111       PART-1-1                                        
   112        112       PART-1-1                                        
   113        113       PART-1-1                                        
   114        114       PART-1-1                                        
   115        115       PART-1-1                                        
   116        116       PART-1-1                                        
   117        117       PART-1-1                                        
   118        118       PART-1-1                                        
   119        119       PART-1-1                                        
   120        120       PART-1-1                                        
   121        121       PART-1-1                                        
   122        122       PART-1-1                                        
   123        123       PART-1-1                                        
   124        124       PART-1-1                                        
   125        125       PART-1-1                                        
   126        126       PART-1-1                                        
   127        127       PART-1-1                                        
   128        128       PART-1-1                                        
   129        129       PART-1-1                                        
   130        130       PART-1-1                                        
   131        131       PART-1-1                                        
   132        132       PART-1-1                                        
   133        133       PART-1-1                                        
   134        134       PART-1-1                                        
   135        135       PART-1-1                                        
   136        136       PART-1-1                                        
   137        137       PART-1-1                                        
   138        138       PART-1-1                                        
   139        139       PART-1-1                                        
   140        140       PART-1-1                                        
   141        141       PART-1-1                                        
   142        142       PART-1-1                                        
   143        143       PART-1-1                                        
   144        144       PART-1-1                                        
   145        145       PART-1-1                                        
   146        146       PART-1-1                                        
   147        147       PART-1-1                                        
   148        148       PART-1-1                                        
   149        149       PART-1-1                                        
   150        150       PART-1-1                                        
   151        151       PART-1-1                                        
   152        152       PART-1-1                                        
   153        153       PART-1-1                                        
   154        154       PART-1-1                                        
   155        155       PART-1-1                                        
   156        156       PART-1-1                                        
   157        157       PART-1-1                                        
   158        158       PART-1-1                                        
   159        159       PART-1-1                                        
   160        160       PART-1-1                                        
   161        161       PART-1-1                                        
   162        162       PART-1-1                                        
   163        163       PART-1-1                                        
   164        164       PART-1-1                                        
   165        165       PART-1-1                                        
   166        166       PART-1-1                                        
   167        167       PART-1-1                                        
   168        168       PART-1-1                                        
   169        169       PART-1-1                                        
   170        170       PART-1-1                                        
   171        171       PART-1-1                                        
   172        172       PART-1-1                                        
   173        173       PART-1-1                                        
   174        174       PART-1-1                                        
   175        175       PART-1-1                                        
   176        176       PART-1-1                                        
   177        177       PART-1-1                                        
   178        178       PART-1-1                                        
   179        179       PART-1-1                                        
   180        180       PART-1-1                                        
   181        181       PART-1-1                                        
   182        182       PART-1-1                                        
   183        183       PART-1-1                                        
   184        184       PART-1-1                                        
   185        185       PART-1-1                                        
   186        186       PART-1-1                                        
   187        187       PART-1-1                                        
   188        188       PART-1-1                                        
   189        189       PART-1-1                                        
   190        190       PART-1-1                                        
   191        191       PART-1-1                                        
   192        192       PART-1-1                                        
   193        193       PART-1-1                                        
   194        194       PART-1-1                                        
   195        195       PART-1-1                                        
   196        196       PART-1-1                                        
   197        197       PART-1-1                                        
   198        198       PART-1-1                                        
   199        199       PART-1-1                                        
   200        200       PART-1-1                                        
   201        201       PART-1-1                                        
   202        202       PART-1-1                                        
   203        203       PART-1-1                                        
   204        204       PART-1-1                                        
   205        205       PART-1-1                                        
   206        206       PART-1-1                                        
   207        207       PART-1-1                                        
   208        208       PART-1-1                                        
   209        209       PART-1-1                                        
   210        210       PART-1-1                                        
   211        211       PART-1-1                                        
   212        212       PART-1-1                                        
   213        213       PART-1-1                                        
   214        214       PART-1-1                                        
   215        215       PART-1-1                                        
   216        216       PART-1-1                                        
   217        217       PART-1-1                                        
   218        218       PART-1-1                                        
   219        219       PART-1-1                                        
   220        220       PART-1-1                                        
   221        221       PART-1-1                                        
   222        222       PART-1-1                                        
   223        223       PART-1-1                                        
   224        224       PART-1-1                                        
   225        225       PART-1-1                                        
   226        226       PART-1-1                                        
   227        227       PART-1-1                                        
   228        228       PART-1-1                                        
   229        229       PART-1-1                                        
   230        230       PART-1-1                                        
   231        231       PART-1-1                                        
   232        232       PART-1-1                                        
   233        233       PART-1-1                                        
   234        234       PART-1-1                                        
   235        235       PART-1-1                                        
   236        236       PART-1-1                                        
   237        237       PART-1-1                                        
   238        238       PART-1-1                                        
   239        239       PART-1-1                                        
   240        240       PART-1-1                                        
   241        241       PART-1-1                                        
   242        242       PART-1-1                                        
   243        243       PART-1-1                                        
   244        244       PART-1-1                                        
   245        245       PART-1-1                                        
   246        246       PART-1-1                                        
   247        247       PART-1-1                                        
   248        248       PART-1-1                                        
   249        249       PART-1-1                                        
   250        250       PART-1-1                                        
   251        251       PART-1-1                                        
   252        252       PART-1-1                                        
   253        253       PART-1-1                                        
   254        254       PART-1-1                                        
   255        255       PART-1-1                                        
   256        256       PART-1-1                                        
   257        257       PART-1-1                                        
   258        258       PART-1-1                                        
   259        259       PART-1-1                                        
   260        260       PART-1-1                                        
   261        261       PART-1-1                                        
   262        262       PART-1-1                                        
   263        263       PART-1-1                                        
   264        264       PART-1-1                                        
   265        265       PART-1-1                                        
   266        266       PART-1-1                                        
   267        267       PART-1-1                                        
   268        268       PART-1-1                                        
   269        269       PART-1-1                                        
   270        270       PART-1-1                                        
   271        271       PART-1-1                                        
   272        272       PART-1-1                                        
   273        273       PART-1-1                                        
   274        274       PART-1-1                                        
   275        275       PART-1-1                                        
   276        276       PART-1-1                                        
   277        277       PART-1-1                                        
   278        278       PART-1-1                                        
   279        279       PART-1-1                                        
   280        280       PART-1-1                                        
   281        281       PART-1-1                                        
   282        282       PART-1-1                                        
   283        283       PART-1-1                                        
   284        284       PART-1-1                                        
   285        285       PART-1-1                                        
   286        286       PART-1-1                                        
   287        287       PART-1-1                                        
   288        288       PART-1-1                                        
   289        289       PART-1-1                                        
   290        290       PART-1-1                                        
   291        291       PART-1-1                                        
   292        292       PART-1-1                                        
   293        293       PART-1-1                                        
   294        294       PART-1-1                                        
   295        295       PART-1-1                                        
   296        296       PART-1-1                                        
   297        297       PART-1-1                                        
   298        298       PART-1-1                                        
   299        299       PART-1-1                                        
   300        300       PART-1-1                                        
   301        301       PART-1-1                                        
   302        302       PART-1-1                                        
   303        303       PART-1-1                                        
   304        304       PART-1-1                                        
   305        305       PART-1-1                                        
   306        306       PART-1-1                                        
   307        307       PART-1-1                                        
   308        308       PART-1-1                                        
   309        309       PART-1-1                                        
   310        310       PART-1-1                                        
   311        311       PART-1-1                                        
   312        312       PART-1-1                                        
   313        313       PART-1-1                                        
   314        314       PART-1-1                                        
   315        315       PART-1-1                                        
   316        316       PART-1-1                                        
   317        317       PART-1-1                                        
   318        318       PART-1-1                                        
   319        319       PART-1-1                                        
   320        320       PART-1-1                                        
   321        321       PART-1-1                                        
   322        322       PART-1-1                                        
   323        323       PART-1-1                                        
   324        324       PART-1-1                                        
   325        325       PART-1-1                                        
   326        326       PART-1-1                                        
   327        327       PART-1-1                                        
   328        328       PART-1-1                                        
   329        329       PART-1-1                                        
   330        330       PART-1-1                                        
   331        331       PART-1-1                                        
   332        332       PART-1-1                                        
   333        333       PART-1-1                                        
   334        334       PART-1-1                                        
   335        335       PART-1-1                                        
   336        336       PART-1-1                                        
   337        337       PART-1-1                                        
   338        338       PART-1-1                                        
   339        339       PART-1-1                                        
   340        340       PART-1-1                                        
   341        341       PART-1-1                                        
   342        342       PART-1-1                                        
   343        343       PART-1-1                                        
   344        344       PART-1-1                                        
   345        345       PART-1-1                                        
   346        346       PART-1-1                                        
   347        347       PART-1-1                                        
   348        348       PART-1-1                                        
   349        349       PART-1-1                                        
   350        350       PART-1-1                                        
   351        351       PART-1-1                                        
   352        352       PART-1-1                                        
   353        353       PART-1-1                                        
   354        354       PART-1-1                                        
   355        355       PART-1-1                                        
   356        356       PART-1-1                                        
   357        357       PART-1-1                                        
   358        358       PART-1-1                                        
   359        359       PART-1-1                                        
   360        360       PART-1-1                                        
   361        361       PART-1-1                                        
   362        362       PART-1-1                                        
   363        363       PART-1-1                                        
   364        364       PART-1-1                                        
   365        365       PART-1-1                                        
   366        366       PART-1-1                                        
   367        367       PART-1-1                                        
   368        368       PART-1-1                                        
   369        369       PART-1-1                                        
   370        370       PART-1-1                                        
   371        371       PART-1-1                                        
   372        372       PART-1-1                                        
   373        373       PART-1-1                                        
   374        374       PART-1-1                                        
   375        375       PART-1-1                                        
   376        376       PART-1-1                                        
   377        377       PART-1-1                                        
   378        378       PART-1-1                                        
   379        379       PART-1-1                                        
   380        380       PART-1-1                                        
   381        381       PART-1-1                                        
   382        382       PART-1-1                                        
   383        383       PART-1-1                                        
   384        384       PART-1-1                                        
   385        385       PART-1-1                                        
   386        386       PART-1-1                                        
   387        387       PART-1-1                                        
   388        388       PART-1-1                                        
   389        389       PART-1-1                                        
   390        390       PART-1-1                                        
   391        391       PART-1-1                                        
   392        392       PART-1-1                                        
   393        393       PART-1-1                                        
   394        394       PART-1-1                                        
   395        395       PART-1-1                                        
   396        396       PART-1-1                                        
   397        397       PART-1-1                                        
   398        398       PART-1-1                                        
   399        399       PART-1-1                                        
   400        400       PART-1-1                                        
   401        401       PART-1-1                                        
   402        402       PART-1-1                                        
   403        403       PART-1-1                                        
   404        404       PART-1-1                                        
   405        405       PART-1-1                                        
   406        406       PART-1-1                                        
   407        407       PART-1-1                                        
   408        408       PART-1-1                                        
   409        409       PART-1-1                                        
   410        410       PART-1-1                                        
   411        411       PART-1-1                                        
   412        412       PART-1-1                                        
   413        413       PART-1-1                                        
   414        414       PART-1-1                                        
   415        415       PART-1-1                                        
   416        416       PART-1-1                                        
   417        417       PART-1-1                                        
   418        418       PART-1-1                                        
   419        419       PART-1-1                                        
   420        420       PART-1-1                                        
   421        421       PART-1-1                                        
   422        422       PART-1-1                                        
   423        423       PART-1-1                                        
   424        424       PART-1-1                                        
   425        425       PART-1-1                                        
   426        426       PART-1-1                                        
   427        427       PART-1-1                                        
   428        428       PART-1-1                                        
   429        429       PART-1-1                                        
   430        430       PART-1-1                                        
   431        431       PART-1-1                                        
   432        432       PART-1-1                                        
   433        433       PART-1-1                                        
   434        434       PART-1-1                                        
   435        435       PART-1-1                                        
   436        436       PART-1-1                                        
   437        437       PART-1-1                                        
   438        438       PART-1-1                                        
   439        439       PART-1-1                                        
   440        440       PART-1-1                                        
   441        441       PART-1-1                                        
   442        442       PART-1-1                                        
   443        443       PART-1-1                                        
   444        444       PART-1-1                                        
   445        445       PART-1-1                                        
   446        446       PART-1-1                                        
   447        447       PART-1-1                                        
   448        448       PART-1-1                                        
   449        449       PART-1-1                                        
   450        450       PART-1-1                                        
   451        451       PART-1-1                                        
   452        452       PART-1-1                                        
   453        453       PART-1-1                                        
   454        454       PART-1-1                                        
   455        455       PART-1-1                                        
   456        456       PART-1-1                                        
   457        457       PART-1-1                                        
   458        458       PART-1-1                                        
   459        459       PART-1-1                                        
   460        460       PART-1-1                                        
   461        461       PART-1-1                                        
   462        462       PART-1-1                                        
   463        463       PART-1-1                                        
   464        464       PART-1-1                                        
   465        465       PART-1-1                                        
   466        466       PART-1-1                                        
   467        467       PART-1-1                                        
   468        468       PART-1-1                                        
   469        469       PART-1-1                                        
   470        470       PART-1-1                                        
   471        471       PART-1-1                                        
   472        472       PART-1-1                                        
   473        473       PART-1-1                                        
   474        474       PART-1-1                                        
   475        475       PART-1-1                                        
   476        476       PART-1-1                                        
   477        477       PART-1-1                                        
   478        478       PART-1-1                                        
   479        479       PART-1-1                                        
   480        480       PART-1-1                                        
   481        481       PART-1-1                                        
   482        482       PART-1-1                                        
   483        483       PART-1-1                                        
   484        484       PART-1-1                                        
   485        485       PART-1-1                                        
   486        486       PART-1-1                                        
   487        487       PART-1-1                                        
   488        488       PART-1-1                                        
   489        489       PART-1-1                                        
   490        490       PART-1-1                                        
   491        491       PART-1-1                                        
   492        492       PART-1-1                                        
   493        493       PART-1-1                                        
   494        494       PART-1-1                                        
   495        495       PART-1-1                                        
   496        496       PART-1-1                                        
   497        497       PART-1-1                                        
   498        498       PART-1-1                                        
   499        499       PART-1-1                                        
   500        500       PART-1-1                                        
   501        501       PART-1-1                                        
   502        502       PART-1-1                                        
   503        503       PART-1-1                                        
   504        504       PART-1-1                                        
   505        505       PART-1-1                                        
   506        506       PART-1-1                                        
   507        507       PART-1-1                                        
   508        508       PART-1-1                                        
   509        509       PART-1-1                                        
   510        510       PART-1-1                                        
   511        511       PART-1-1                                        
   512        512       PART-1-1                                        
   513        513       PART-1-1                                        
   514        514       PART-1-1                                        
   515        515       PART-1-1                                        
   516        516       PART-1-1                                        
   517        517       PART-1-1                                        
   518        518       PART-1-1                                        
   519        519       PART-1-1                                        
   520        520       PART-1-1                                        
   521        521       PART-1-1                                        
   522        522       PART-1-1                                        
   523        523       PART-1-1                                        
   524        524       PART-1-1                                        
   525        525       PART-1-1                                        
   526        526       PART-1-1                                        
   527        527       PART-1-1                                        
   528        528       PART-1-1                                        
   529        529       PART-1-1                                        
   530        530       PART-1-1                                        
   531        531       PART-1-1                                        
   532        532       PART-1-1                                        
   533        533       PART-1-1                                        
   534        534       PART-1-1                                        
   535        535       PART-1-1                                        
   536        536       PART-1-1                                        
   537        537       PART-1-1                                        
   538        538       PART-1-1                                        
   539        539       PART-1-1                                        
   540        540       PART-1-1                                        
   541        541       PART-1-1                                        
   542        542       PART-1-1                                        
   543        543       PART-1-1                                        
   544        544       PART-1-1                                        
   545        545       PART-1-1                                        
   546        546       PART-1-1                                        
   547        547       PART-1-1                                        
   548        548       PART-1-1                                        
   549        549       PART-1-1                                        
   550        550       PART-1-1                                        
   551        551       PART-1-1                                        
   552        552       PART-1-1                                        
   553        553       PART-1-1                                        
   554        554       PART-1-1                                        
   555        555       PART-1-1                                        
   556        556       PART-1-1                                        
   557        557       PART-1-1                                        
   558        558       PART-1-1                                        
   559        559       PART-1-1                                        
   560        560       PART-1-1                                        
   561        561       PART-1-1                                        
   562        562       PART-1-1                                        
   563        563       PART-1-1                                        
   564        564       PART-1-1                                        
   565        565       PART-1-1                                        
   566        566       PART-1-1                                        
   567        567       PART-1-1                                        
   568        568       PART-1-1                                        
   569        569       PART-1-1                                        
   570        570       PART-1-1                                        
   571        571       PART-1-1                                        
   572        572       PART-1-1                                        
   573        573       PART-1-1                                        
   574        574       PART-1-1                                        
   575        575       PART-1-1                                        
   576        576       PART-1-1                                        
   577        577       PART-1-1                                        
   578        578       PART-1-1                                        
   579        579       PART-1-1                                        
   580        580       PART-1-1                                        
   581        581       PART-1-1                                        
   582        582       PART-1-1                                        
   583        583       PART-1-1                                        
   584        584       PART-1-1                                        
   585        585       PART-1-1                                        
   586        586       PART-1-1                                        
   587        587       PART-1-1                                        
   588        588       PART-1-1                                        
   589        589       PART-1-1                                        
   590        590       PART-1-1                                        
   591        591       PART-1-1                                        
   592        592       PART-1-1                                        
   593        593       PART-1-1                                        
   594        594       PART-1-1                                        
   595        595       PART-1-1                                        
   596        596       PART-1-1                                        
   597        597       PART-1-1                                        
   598        598       PART-1-1                                        
   599        599       PART-1-1                                        
   600        600       PART-1-1                                        
   601        601       PART-1-1                                        
   602        602       PART-1-1                                        
   603        603       PART-1-1                                        
   604        604       PART-1-1                                        
   605        605       PART-1-1                                        
   606        606       PART-1-1                                        
   607        607       PART-1-1                                        
   608        608       PART-1-1                                        
   609        609       PART-1-1                                        
   610        610       PART-1-1                                        
   611        611       PART-1-1                                        
   612        612       PART-1-1                                        
   613        613       PART-1-1                                        
   614        614       PART-1-1                                        
   615        615       PART-1-1                                        
   616        616       PART-1-1                                        
   617        617       PART-1-1                                        
   618        618       PART-1-1                                        
   619        619       PART-1-1                                        
   620        620       PART-1-1                                        
   621        621       PART-1-1                                        
   622        622       PART-1-1                                        
   623        623       PART-1-1                                        
   624        624       PART-1-1                                        
   625        625       PART-1-1                                        
   626        626       PART-1-1                                        
   627        627       PART-1-1                                        
   628        628       PART-1-1                                        
   629        629       PART-1-1                                        
   630        630       PART-1-1                                        
   631        631       PART-1-1                                        
   632        632       PART-1-1                                        
   633        633       PART-1-1                                        
   634        634       PART-1-1                                        
   635        635       PART-1-1                                        
   636        636       PART-1-1                                        
   637        637       PART-1-1                                        
   638        638       PART-1-1                                        
   639        639       PART-1-1                                        
   640        640       PART-1-1                                        
   641        641       PART-1-1                                        
   642        642       PART-1-1                                        
   643        643       PART-1-1                                        
   644        644       PART-1-1                                        
   645        645       PART-1-1                                        
   646        646       PART-1-1                                        
   647        647       PART-1-1                                        
   648        648       PART-1-1                                        
   649        649       PART-1-1                                        
   650        650       PART-1-1                                        
   651        651       PART-1-1                                        
   652        652       PART-1-1                                        
   653        653       PART-1-1                                        
   654        654       PART-1-1                                        
   655        655       PART-1-1                                        
   656        656       PART-1-1                                        
   657        657       PART-1-1                                        
   658        658       PART-1-1                                        
   659        659       PART-1-1                                        
   660        660       PART-1-1                                        
   661        661       PART-1-1                                        
   662        662       PART-1-1                                        
   663        663       PART-1-1                                        
   664        664       PART-1-1                                        
   665        665       PART-1-1                                        
   666        666       PART-1-1                                        
   667        667       PART-1-1                                        
   668        668       PART-1-1                                        
   669        669       PART-1-1                                        
   670        670       PART-1-1                                        
   671        671       PART-1-1                                        
   672        672       PART-1-1                                        
   673        673       PART-1-1                                        
   674        674       PART-1-1                                        
   675        675       PART-1-1                                        
   676        676       PART-1-1                                        
   677        677       PART-1-1                                        
   678        678       PART-1-1                                        
   679        679       PART-1-1                                        
   680        680       PART-1-1                                        
   681        681       PART-1-1                                        
   682        682       PART-1-1                                        
   683        683       PART-1-1                                        
   684        684       PART-1-1                                        
   685        685       PART-1-1                                        
   686        686       PART-1-1                                        
   687        687       PART-1-1                                        
   688        688       PART-1-1                                        
   689        689       PART-1-1                                        
   690        690       PART-1-1                                        
   691        691       PART-1-1                                        
   692        692       PART-1-1                                        
   693        693       PART-1-1                                        
   694        694       PART-1-1                                        
   695        695       PART-1-1                                        
   696        696       PART-1-1                                        
   697        697       PART-1-1                                        
   698        698       PART-1-1                                        
   699        699       PART-1-1                                        
   700        700       PART-1-1                                        
   701        701       PART-1-1                                        
   702        702       PART-1-1                                        
   703        703       PART-1-1                                        
   704        704       PART-1-1                                        
   705        705       PART-1-1                                        
   706        706       PART-1-1                                        
   707        707       PART-1-1                                        
   708        708       PART-1-1                                        
   709        709       PART-1-1                                        
   710        710       PART-1-1                                        
   711        711       PART-1-1                                        
   712        712       PART-1-1                                        
   713        713       PART-1-1                                        
   714        714       PART-1-1                                        
   715        715       PART-1-1                                        
   716        716       PART-1-1                                        
   717        717       PART-1-1                                        
   718        718       PART-1-1                                        
   719        719       PART-1-1                                        
   720        720       PART-1-1                                        
   721        721       PART-1-1                                        
   722        722       PART-1-1                                        
   723        723       PART-1-1                                        
   724        724       PART-1-1                                        
   725        725       PART-1-1                                        
   726        726       PART-1-1                                        
   727        727       PART-1-1                                        
   728        728       PART-1-1                                        
   729        729       PART-1-1                                        
   730        730       PART-1-1                                        
   731        731       PART-1-1                                        
   732        732       PART-1-1                                        
   733        733       PART-1-1                                        
   734        734       PART-1-1                                        
   735        735       PART-1-1                                        
   736        736       PART-1-1                                        
   737        737       PART-1-1                                        
   738        738       PART-1-1                                        
   739        739       PART-1-1                                        
   740        740       PART-1-1                                        
   741        741       PART-1-1                                        
   742        742       PART-1-1                                        
   743        743       PART-1-1                                        
   744        744       PART-1-1                                        
   745        745       PART-1-1                                        
   746        746       PART-1-1                                        
   747        747       PART-1-1                                        
   748        748       PART-1-1                                        
   749        749       PART-1-1                                        
   750        750       PART-1-1                                        
   751        751       PART-1-1                                        
   752        752       PART-1-1                                        
   753        753       PART-1-1                                        
   754        754       PART-1-1                                        
   755        755       PART-1-1                                        
   756        756       PART-1-1                                        
   757        757       PART-1-1                                        
   758        758       PART-1-1                                        
   759        759       PART-1-1                                        
   760        760       PART-1-1                                        
   761        761       PART-1-1                                        
   762        762       PART-1-1                                        
   763        763       PART-1-1                                        
   764        764       PART-1-1                                        
   765        765       PART-1-1                                        
   766        766       PART-1-1                                        
   767        767       PART-1-1                                        
   768        768       PART-1-1                                        
   769        769       PART-1-1                                        
   770        770       PART-1-1                                        
   771        771       PART-1-1                                        
   772        772       PART-1-1                                        
   773        773       PART-1-1                                        
   774        774       PART-1-1                                        
   775        775       PART-1-1                                        
   776        776       PART-1-1                                        
   777        777       PART-1-1                                        
   778        778       PART-1-1                                        
   779        779       PART-1-1                                        
   780        780       PART-1-1                                        
   781        781       PART-1-1                                        
   782        782       PART-1-1                                        
[...]
        3588   1          1.000       1.000       1.000      0.5000      5.9211E-06 -3.8737E-06  1.1199E-05 -6.9866E-06 -2.7382E-06
        3588   2          1.000       1.000       1.000      0.5000      1.0383E-05 -6.8387E-06  3.1055E-06 -3.8726E-06 -6.7529E-06
        3588   3          1.000       1.000       1.000      0.5000      2.0317E-06  4.8419E-06  2.1105E-06 -4.1662E-06  1.0768E-06
        3588   4          1.000       1.000       1.000      0.5000      2.2781E-05 -2.2023E-06  4.3062E-06 -1.1254E-05 -4.8473E-06
        3589   1          1.000       1.000       1.000      0.5000      3.9015E-06 -7.9059E-06  3.1081E-06  3.6288E-06 -4.6252E-06
        3589   2          1.000       1.000       1.000      0.5000     -2.2927E-05 -1.8117E-06 -1.3871E-06  3.8643E-06  3.0093E-06
        3589   3          1.000       1.000       1.000      0.5000     -4.0194E-06 -2.0413E-06 -1.1266E-06  1.1063E-06 -7.7467E-07
        3589   4          1.000       1.000       1.000      0.5000      3.4885E-05 -1.6424E-06  3.2473E-06  4.6881E-06  4.2033E-06
        3590   1          1.000       1.000       1.000      0.5000      7.0656E-07 -1.6785E-07  4.0350E-07 -1.8700E-07 -9.7379E-07
        3590   2          1.000       1.000       1.000      0.5000      6.8773E-07 -8.1365E-07 -2.2718E-07  1.1380E-07 -2.8682E-07
        3590   3          1.000       1.000       1.000      0.5000      3.7816E-06 -3.2171E-07 -4.3481E-09 -2.2118E-07 -1.0616E-07
        3590   4          1.000       1.000       1.000      0.5000      5.0698E-07 -6.4810E-07 -1.9165E-07 -1.7057E-07 -1.5877E-07
        3591   1          1.000       1.000       1.000      0.5000      6.7622E-08 -1.0778E-07  3.0473E-07 -3.5557E-07  9.6328E-09
        3591   2          1.000       1.000       1.000      0.5000      5.9598E-09 -7.0557E-08  8.2948E-08 -1.7231E-07  2.6756E-08
        3591   3          1.000       1.000       1.000      0.5000     -1.1366E-07  1.7548E-07 -8.8862E-08  3.6614E-07  9.8549E-08
        3591   4          1.000       1.000       1.000      0.5000      1.3567E-07  2.1770E-07 -5.3761E-08 -1.6964E-07 -6.7199E-08
        3592   1          1.000       1.000       1.000      0.5000      3.8124E-06  4.2576E-07  2.5025E-06  7.6906E-07 -1.4189E-06
        3592   2          1.000       1.000       1.000      0.5000      5.9620E-06 -2.5227E-06  2.7305E-07 -3.6411E-06 -1.6365E-06
        3592   3          1.000       1.000       1.000      0.5000     -2.1428E-06 -1.8650E-06  3.2584E-06 -1.7564E-06  1.1273E-06
        3592   4          1.000       1.000       1.000      0.5000     -4.8939E-06 -3.0070E-06 -2.3876E-06 -2.8444E-07 -1.4826E-07
        3593   1          1.000       1.000       1.000      0.5000      1.7219E-07 -3.9264E-07 -9.6626E-07  2.0134E-07 -8.5937E-07
        3593   2          1.000       1.000       1.000      0.5000      6.1112E-08 -1.4828E-06 -1.0165E-06  3.2004E-07 -9.2312E-07
        3593   3          1.000       1.000       1.000      0.5000      7.6757E-08 -1.6953E-06 -8.3797E-07 -2.6804E-07 -3.8840E-07
        3593   4          1.000       1.000       1.000      0.5000     -9.7926E-08 -5.5493E-07 -2.4624E-06  8.1425E-07 -3.1723E-07
        3594   1          1.000       1.000       1.000      0.5000     -2.9367E-06 -2.4068E-08 -8.7895E-07  5.2813E-07  4.0533E-07
        3594   2          1.000       1.000       1.000      0.5000     -5.4160E-07  3.1118E-08 -4.5408E-07  2.5876E-07  4.1524E-07
        3594   3          1.000       1.000       1.000      0.5000     -1.3010E-06 -1.6273E-06 -1.9035E-06 -2.7782E-07  3.9699E-07
        3594   4          1.000       1.000       1.000      0.5000     -1.2923E-06 -1.2141E-06  8.9691E-07  1.6974E-07  1.0373E-06
        3595   1          1.000       1.000       1.000      0.5000     -1.1165E-06  2.7404E-06 -1.4788E-06  2.4569E-06 -3.0183E-06
        3595   2          1.000       1.000       1.000      0.5000     -2.4738E-05  5.2534E-07 -6.6071E-07  3.1198E-06  1.7994E-06
        3595   3          1.000       1.000       1.000      0.5000      9.7311E-07  9.3677E-07  5.5893E-07  1.4360E-06  3.0659E-08
        3595   4          1.000       1.000       1.000      0.5000     -1.5003E-06  5.2931E-07 -6.2100E-07  1.1011E-06 -2.7276E-07
        3596   1          1.000       1.000       1.000      0.5000      2.6310E-06  1.0439E-09 -3.4685E-07  3.9295E-08 -2.4911E-07
        3596   2          1.000       1.000       1.000      0.5000      5.5333E-07 -3.1382E-07 -2.6225E-07  3.5072E-07  2.4155E-07
        3596   3          1.000       1.000       1.000      0.5000      2.9826E-06  1.4284E-07 -2.7399E-07  1.0606E-07 -5.8825E-08
        3596   4          1.000       1.000       1.000      0.5000      1.6575E-06 -2.4599E-07 -4.4217E-07 -1.8948E-08 -8.8628E-08
        3597   1          1.000       1.000       1.000      0.5000      4.1820E-07  1.7307E-07  2.2552E-07 -6.2362E-08 -1.5323E-07
        3597   2          1.000       1.000       1.000      0.5000      7.3244E-08  5.1932E-07  5.2262E-07 -1.6257E-08  3.7333E-08
        3597   3          1.000       1.000       1.000      0.5000      1.1227E-07  3.1973E-09  1.9627E-07  4.2206E-09 -1.5310E-07
        3597   4          1.000       1.000       1.000      0.5000      8.7117E-07  7.9378E-07  5.2658E-07 -1.0113E-07  9.6002E-08
        3598   1          1.000       1.000       1.000      0.5000      2.2246E-07 -3.8353E-08  2.2481E-07 -4.1270E-08  1.6584E-07
        3598   2          1.000       1.000       1.000      0.5000      2.3761E-07 -7.3060E-08  1.5814E-07  2.5221E-08  1.1470E-07
        3598   3          1.000       1.000       1.000      0.5000      1.3051E-07 -2.9324E-08  2.8758E-07  1.0665E-07  1.1182E-07
        3598   4          1.000       1.000       1.000      0.5000      1.0207E-07  1.1043E-07  1.9455E-07  4.0538E-08  9.7433E-08
        3599   1          1.000       1.000       1.000      0.5000      1.7403E-06 -2.1363E-07  6.5939E-09 -1.1205E-07 -3.0334E-07
        3599   2          1.000       1.000       1.000      0.5000      5.2260E-07 -7.6582E-08  4.1170E-07 -2.5513E-07 -3.4476E-07
        3599   3          1.000       1.000       1.000      0.5000      7.7129E-07  1.7504E-07  9.8755E-07  1.0278E-06  2.7700E-07
        3599   4          1.000       1.000       1.000      0.5000      1.0677E-06 -1.0273E-06 -2.4160E-07  7.6805E-07 -7.5831E-07
        3600   1          1.000       1.000       1.000      0.5000     -3.2600E-07 -5.0104E-07 -7.7516E-08 -2.4937E-07  1.2868E-07
        3600   2          1.000       1.000       1.000      0.5000     -9.4029E-07 -3.1700E-07  7.5739E-07 -6.3810E-07  7.5228E-09
        3600   3          1.000       1.000       1.000      0.5000     -1.0985E-06 -5.4033E-07  2.2104E-07 -5.8088E-07  2.2193E-07
        3600   4          1.000       1.000       1.000      0.5000     -1.0457E-06 -7.8052E-07  3.0076E-07 -1.8323E-08 -2.5078E-07
        3601   1          1.000       1.000       1.000      0.5000      5.5287E-06 -6.6708E-07 -3.5488E-06  3.5153E-06  7.0315E-07
        3601   2          1.000       1.000       1.000      0.5000     -1.1622E-05 -5.5029E-06 -7.1075E-06  2.1975E-06 -1.9327E-06
        3601   3          1.000       1.000       1.000      0.5000      1.9137E-06 -1.1795E-06 -2.9878E-06  1.9001E-06  1.7480E-06
        3601   4          1.000       1.000       1.000      0.5000     -3.3921E-06 -3.4846E-06 -9.9500E-07  8.9091E-07  2.2080E-07
        3602   1          1.000       1.000       1.000      0.5000      1.2515E-06 -3.1754E-08  4.0497E-06 -1.6464E-06 -1.2355E-06
        3602   2          1.000       1.000       1.000      0.5000     -1.3867E-06 -2.1644E-06  1.4761E-06 -7.9424E-07 -2.3037E-06
        3602   3          1.000       1.000       1.000      0.5000      8.6769E-06 -2.6574E-07  1.1094E-06 -5.1793E-07 -6.6225E-07
        3602   4          1.000       1.000       1.000      0.5000     -1.6825E-06 -1.8921E-06  1.4325E-06 -5.9367E-07 -1.4704E-06
        3603   1          1.000       1.000       1.000      0.5000     -1.2987E-06 -2.6692E-07  5.4253E-07  1.2860E-06 -4.1001E-07
        3603   2          1.000       1.000       1.000      0.5000     -4.2846E-06 -3.5907E-07 -1.3605E-08  5.6143E-07 -2.7664E-07
        3603   3          1.000       1.000       1.000      0.5000     -3.1038E-06  1.8491E-07  2.1851E-07  1.0028E-06 -7.2049E-07
        3603   4          1.000       1.000       1.000      0.5000     -2.0987E-06 -1.1551E-07  1.0454E-07  6.4887E-07 -4.1046E-07
        3604   1          1.000       1.000       1.000      0.5000     -2.0655E-08  2.7689E-08 -1.7880E-07  1.5069E-07 -1.1480E-07
        3604   2          1.000       1.000       1.000      0.5000      4.1126E-08 -1.5742E-08 -2.3030E-07  1.2445E-07 -6.2915E-08
        3604   3          1.000       1.000       1.000      0.5000     -3.7872E-08 -1.2741E-07 -2.1649E-07  3.8185E-07 -4.5890E-08
        3604   4          1.000       1.000       1.000      0.5000     -2.2784E-07  1.0359E-07 -1.3219E-07  2.9203E-07 -2.7709E-07
        3605   1          1.000       1.000       1.000      0.5000     -5.8416E-07 -7.0679E-07  4.5916E-06  1.7645E-06 -8.5017E-07
        3605   2          1.000       1.000       1.000      0.5000     -9.6778E-07  3.4720E-06  1.4870E-06  4.4184E-07 -3.2369E-07
        3605   3          1.000       1.000       1.000      0.5000     -2.8901E-06 -1.0333E-06  8.9901E-07  2.9415E-07  1.3357E-09
        3605   4          1.000       1.000       1.000      0.5000     -2.1867E-06  2.4028E-06  1.3814E-06  5.1758E-07 -4.6054E-07
        3606   1          1.000       1.000       1.000      0.5000      1.9357E-07  1.1937E-07  6.9129E-07 -3.6796E-09 -1.2261E-07
        3606   2          1.000       1.000       1.000      0.5000     -4.1066E-08 -4.1540E-07  4.7069E-07  1.6277E-07  1.2029E-07
        3606   3          1.000       1.000       1.000      0.5000     -2.7215E-07  5.3013E-07  1.0893E-06 -7.6464E-08 -2.8284E-07
        3606   4          1.000       1.000       1.000      0.5000      8.6635E-08 -1.2877E-08  4.0683E-07  9.4750E-08 -8.5249E-08
        3607   1          1.000       1.000       1.000      0.5000      7.8160E-06 -9.0528E-08 -3.7268E-07  1.1017E-07 -2.0072E-07
        3607   2          1.000       1.000       1.000      0.5000      7.3374E-06 -2.7938E-07  9.6431E-07 -3.5047E-06 -3.7101E-06
        3607   3          1.000       1.000       1.000      0.5000      1.3902E-05 -2.0093E-07  1.0055E-06 -3.9498E-06 -4.2835E-06
        3607   4          1.000       1.000       1.000      0.5000     -8.2675E-08 -2.4218E-07  6.9778E-07 -3.0366E-06 -3.7567E-06
        3608   1          1.000       1.000       1.000      0.5000     -1.2540E-06 -5.7117E-07 -1.1967E-06 -1.0446E-06 -4.0012E-08
        3608   2          1.000       1.000       1.000      0.5000     -1.0406E-06 -1.2131E-07  1.3706E-06  6.8539E-07 -5.4715E-08
        3608   3          1.000       1.000       1.000      0.5000     -1.9877E-06  6.9792E-07 -2.0138E-06 -2.3280E-06 -1.1875E-06
        3608   4          1.000       1.000       1.000      0.5000     -2.4897E-06 -1.2486E-06  1.9498E-06  3.6001E-06  6.3461E-07
        3609   1          1.000       1.000       1.000      0.5000      2.7557E-08 -4.0912E-08 -1.4167E-09  1.1143E-07  1.1834E-07
        3609   2          1.000       1.000       1.000      0.5000      2.3286E-08  1.2471E-07  3.6265E-08  1.3584E-07  1.1781E-07
        3609   3          1.000       1.000       1.000      0.5000      1.0087E-08  1.3498E-07  1.7431E-08  1.0746E-07 -3.4300E-08
        3609   4          1.000       1.000       1.000      0.5000      9.6743E-08  3.0095E-07 -1.8734E-07  2.6731E-08 -2.2603E-07
        3610   1          1.000       1.000       1.000      0.5000      6.5569E-08 -3.1062E-07 -5.4248E-07  5.7749E-07 -4.6695E-08
        3610   2          1.000       1.000       1.000      0.5000      5.6896E-08 -2.4326E-08 -1.9383E-06  1.9878E-08  1.4366E-07
        3610   3          1.000       1.000       1.000      0.5000      1.1671E-07 -1.2848E-06 -1.5462E-07 -1.1063E-07  3.4095E-07
        3610   4          1.000       1.000       1.000      0.5000      5.6791E-07 -1.3550E-07 -1.5366E-06  1.5356E-06 -6.3361E-07
        3611   1          1.000       1.000       1.000      0.5000     -1.0484E-07 -4.5546E-08 -1.3723E-07  1.2486E-07 -1.1862E-07
        3611   2          1.000       1.000       1.000      0.5000     -2.9523E-08 -1.2184E-07 -1.8821E-07  7.6734E-08 -6.6523E-08
        3611   3          1.000       1.000       1.000      0.5000      2.1504E-09 -1.7025E-07 -2.1876E-07  1.1976E-07 -1.2718E-07
        3611   4          1.000       1.000       1.000      0.5000      3.9418E-09 -1.3118E-07 -4.0136E-07  5.9747E-08 -1.2088E-07
        3612   1          1.000       1.000       1.000      0.5000      1.0791E-07 -2.9104E-08 -7.5220E-08  6.5667E-07 -4.4280E-07
        3612   2          1.000       1.000       1.000      0.5000      1.3062E-07 -1.4006E-07  5.4514E-08 -5.8639E-08  2.2920E-07
        3612   3          1.000       1.000       1.000      0.5000      2.0735E-07  1.0941E-08  7.3728E-08 -1.3796E-07  5.8873E-07
        3612   4          1.000       1.000       1.000      0.5000      1.0060E-07 -2.3998E-08 -9.7576E-08  8.1005E-08  2.3703E-07
        3613   1          1.000       1.000       1.000      0.5000      1.1462E-07 -4.5936E-07 -4.6563E-07  2.0661E-07  9.7344E-08
        3613   2          1.000       1.000       1.000      0.5000      8.0277E-07 -9.0367E-07 -5.0715E-07 -2.1713E-09  4.7260E-07
        3613   3          1.000       1.000       1.000      0.5000      9.7193E-08 -4.5167E-07 -5.8325E-07  4.3163E-07  4.6411E-08
        3613   4          1.000       1.000       1.000      0.5000      2.3987E-07 -3.0621E-07 -2.0690E-07 -1.2503E-07 -4.5143E-08
        3614   1          1.000       1.000       1.000      0.5000     -1.0213E-05  2.8717E-06 -2.5017E-06  1.6567E-06 -1.1997E-06
        3614   2          1.000       1.000       1.000      0.5000     -2.1360E-06 -6.2424E-07  7.5753E-08  4.3292E-06 -1.1354E-06
        3614   3          1.000       1.000       1.000      0.5000      4.8269E-06  9.9751E-08  2.6649E-06  3.0141E-06 -3.0932E-06
        3614   4          1.000       1.000       1.000      0.5000     -2.7409E-05 -4.8024E-08  6.2693E-06  8.8629E-06 -7.3766E-06
        3615   1          1.000       1.000       1.000      0.5000      1.9739E-06  1.3880E-06 -1.1474E-06 -8.7135E-07 -7.6013E-07
        3615   2          1.000       1.000       1.000      0.5000     -1.1933E-07 -9.4354E-08 -1.7014E-06 -4.4321E-07 -1.0963E-07
        3615   3          1.000       1.000       1.000      0.5000     -6.5248E-08 -9.5337E-07 -2.7390E-06 -1.9261E-06  2.9576E-06
        3615   4          1.000       1.000       1.000      0.5000     -1.1183E-06 -7.8219E-07 -8.5021E-08  3.7506E-08 -2.7750E-06
        3616   1          1.000       1.000       1.000      0.5000     -9.8659E-06 -7.0565E-06 -1.7188E-06 -2.0061E-06 -1.3805E-07
        3616   2          1.000       1.000       1.000      0.5000     -5.5105E-06 -9.7980E-06  1.1307E-05  8.1844E-07  3.0713E-06
        3616   3          1.000       1.000       1.000      0.5000      1.2586E-05 -1.4503E-06  5.3010E-06 -2.7560E-06  2.0554E-06
        3616   4          1.000       1.000       1.000      0.5000     -1.8532E-06 -8.3425E-06  1.3166E-06 -3.8659E-07  2.6022E-06
        3617   1          1.000       1.000       1.000      0.5000      8.1003E-07  1.2091E-06 -3.6315E-06  3.5431E-07  3.2348E-06
        3617   2          1.000       1.000       1.000      0.5000     -2.2429E-06 -5.2357E-06 -1.6885E-06  6.7532E-07 -1.0117E-06
        3617   3          1.000       1.000       1.000      0.5000      3.5662E-06  7.8047E-07  4.5540E-06  1.4335E-06  2.2706E-06
        3617   4          1.000       1.000       1.000      0.5000      3.0608E-06  6.8728E-07 -1.1209E-06  1.8862E-06 -7.3906E-07
        3618   1          1.000       1.000       1.000      0.5000     -1.5503E-06 -4.5462E-07 -2.2396E-06  2.1121E-06 -1.8319E-06
        3618   2          1.000       1.000       1.000      0.5000      2.8857E-07  2.3978E-07 -1.8190E-07  1.8916E-08 -2.8744E-07
        3618   3          1.000       1.000       1.000      0.5000      1.0921E-06  1.0187E-06 -2.0694E-06  1.3451E-06 -5.3639E-07
        3618   4          1.000       1.000       1.000      0.5000      3.8953E-07  1.2433E-06  2.0050E-08 -1.0631E-07 -1.1397E-06
        3619   1          1.000       1.000       1.000      0.5000     -1.1312E-05 -2.4215E-06  1.7428E-06 -1.2805E-06  2.6655E-06
        3619   2          1.000       1.000       1.000      0.5000      8.3077E-06 -3.4493E-06  1.2195E-06 -7.0138E-08 -6.2947E-07
        3619   3          1.000       1.000       1.000      0.5000      9.0546E-07  2.2570E-06  1.6570E-06  2.7370E-06 -1.8905E-06
        3619   4          1.000       1.000       1.000      0.5000      1.4121E-06 -3.4643E-06  3.7206E-06  3.3322E-07  2.8331E-06
        3620   1          1.000       1.000       1.000      0.5000     -1.5348E-06  1.9740E-07  3.5780E-06  1.1317E-06 -1.5866E-07
        3620   2          1.000       1.000       1.000      0.5000     -2.5074E-06 -1.8887E-07  8.4082E-07  2.8076E-07 -2.2156E-07
        3620   3          1.000       1.000       1.000      0.5000     -2.6659E-06  2.5546E-06  5.7283E-07  1.4819E-07 -8.7523E-07
        3620   4          1.000       1.000       1.000      0.5000      8.9126E-06  2.1110E-06  6.2434E-07  1.4925E-07 -1.0787E-06
        3621   1          1.000       1.000       1.000      0.5000     -1.7035E-07 -5.8729E-07  2.5466E-06  1.7470E-07 -3.9493E-07
        3621   2          1.000       1.000       1.000      0.5000      9.6656E-07  2.2838E-07  1.1429E-06 -6.1794E-08 -3.3407E-07
        3621   3          1.000       1.000       1.000      0.5000      1.3042E-06 -3.3702E-07  1.5484E-06 -1.1850E-06  4.8389E-07
        3621   4          1.000       1.000       1.000      0.5000      3.6566E-08 -8.0586E-07  6.5091E-07 -2.9255E-07  1.9082E-07
        3622   1          1.000       1.000       1.000      0.5000     -1.2343E-06 -4.8162E-08  8.2299E-07 -8.8348E-08 -7.5288E-07
        3622   2          1.000       1.000       1.000      0.5000      1.8491E-07  3.7822E-07  2.9388E-07 -4.0543E-07 -8.0938E-08
        3622   3          1.000       1.000       1.000      0.5000      1.4572E-07  7.7050E-09  4.5145E-07  3.4018E-08 -4.2474E-07
        3622   4          1.000       1.000       1.000      0.5000      5.6025E-07  5.0066E-07  6.6736E-07  5.9898E-08 -4.2944E-07
        3623   1          1.000       1.000       1.000      0.5000     -5.4488E-08 -5.5657E-07  2.0282E-07 -4.1694E-08 -5.1447E-07
        3623   2          1.000       1.000       1.000      0.5000      1.0762E-06 -3.5505E-08  9.6989E-07  2.5751E-07  1.7269E-07
        3623   3          1.000       1.000       1.000      0.5000     -1.8060E-06  2.8462E-07  3.7753E-07  3.5341E-08  7.2938E-08
        3623   4          1.000       1.000       1.000      0.5000      6.4982E-07  2.2193E-07  3.4244E-07 -7.6204E-08  1.8018E-07

 MAXIMUM                 1.000       1.000       1.000      0.5000      5.3402E-05  2.0421E-05  1.7143E-05  1.3580E-05  9.1024E-06
 ELEMENT                  3562        2258        3282        2820        3558        3573        2958        2958        3562 

 MINIMUM                0.9999       1.000       1.000      0.5000     -5.4417E-05 -1.7735E-05 -1.8325E-05 -1.2335E-05 -9.9018E-06
 ELEMENT                  3558        2180        3573        2989        2846        2114        2677        2012        2012 


          THE ANALYSIS HAS BEEN COMPLETED



                              ANALYSIS COMPLETE
                              WITH     24 WARNING MESSAGES ON THE DAT FILE



     JOB TIME SUMMARY
       USER TIME (SEC)      =   11.100    
       SYSTEM TIME (SEC)    =   36.200    
       TOTAL CPU TIME (SEC) =   47.300    
       WALLCLOCK TIME (SEC) =        348
