*Heading
** Job name: Job-flatsheet_avg_at_node Model name: FlatSheet
** Generated by: Abaqus/CAE Unofficial Packaging Version
*Preprint, echo=NO, model=NO, history=NO, contact=NO
**
** PARTS
**
*Part, name=Part-1
*Node
      1,          50.,          25.,           0.
      2,          40.,          25.,           0.
      3,          30.,          25.,           0.
      4,          20.,          25.,           0.
      5,          10.,          25.,           0.
      6,           0.,          25.,           0.
      7,         -10.,          25.,           0.
      8,         -20.,          25.,           0.
      9,         -30.,          25.,           0.
     10,         -40.,          25.,           0.
     11,         -50.,          25.,           0.
     12,          50.,          15.,           0.
     13,          40.,          15.,           0.
     14,          30.,          15.,           0.
     15,          20.,          15.,           0.
     16,          10.,          15.,           0.
     17,           0.,          15.,           0.
     18,         -10.,          15.,           0.
     19,         -20.,          15.,           0.
     20,         -30.,          15.,           0.
** ... 46 like lines cut
*Element, type=S3
  1,  1,  2, 13
  2, 13, 12,  1
  3,  2,  3, 14
  4, 14, 13,  2
  5,  3,  4, 15
  6, 15, 14,  3
  7,  4,  5, 16
  8, 16, 15,  4
  9,  5,  6, 17
 10, 17, 16,  5
 11,  6,  7, 18
 12, 18, 17,  6
 13,  7,  8, 19
 14, 19, 18,  7
 15,  8,  9, 20
 16, 20, 19,  8
 17,  9, 10, 21
 18, 21, 20,  9
 19, 10, 11, 22
 20, 22, 21, 10
** ... 80 like lines cut
*Nset, nset=_PickedSet5, internal, generate
  1,  66,   1
*Elset, elset=_PickedSet5, internal, generate
   1,  100,    1
** Section: Section-1
*Shell Section, elset=_PickedSet5, material=Material-1
0.1, 5
*End Part
**  
**
** ASSEMBLY
**
*Assembly, name=Assembly
**  
*Instance, name=Part-1-1, part=Part-1
*End Instance
**  
*Nset, nset=Set-BC, instance=Part-1-1
  1,  2,  3,  4,  5,  6,  7,  8,  9, 10, 11, 12, 22, 23, 33, 34
 44, 45, 55, 56, 57, 58, 59, 60, 61, 62, 63, 64, 65, 66
*Elset, elset=Set-BC, instance=Part-1-1
   1,   2,   3,   5,   7,   9,  11,  13,  15,  17,  19,  22,  39,  42,  59,  62
  79,  82,  84,  86,  88,  90,  92,  94,  96,  98,  99, 100
*End Assembly
** 
** MATERIALS
** 
*Material, name=Material-1
*Hyperelastic, neo hooke
 3.44828e+08, 3e-10
*Material, name=Material-2
*User Material, constants=2
 2e+09, 0.45
** ----------------------------------------------------------------
** 
** STEP: Step-1
** 
*Step, name=Step-1, nlgeom=YES
*Static
1., 1., 1e-05, 1.
** 
** BOUNDARY CONDITIONS
** 
** Name: BC-1 Type: Displacement/Rotation Using Analytical Field: AnalyticalField-1
*Boundary
Part-1-1.1, 1, 1, 12.5
Part-1-1.2, 1, 1, 12.5
Part-1-1.3, 1, 1, 12.5
Part-1-1.4, 1, 1, 12.5
Part-1-1.5, 1, 1, 12.5
Part-1-1.6, 1, 1, 12.5
Part-1-1.7, 1, 1, 12.5
Part-1-1.8, 1, 1, 12.5
Part-1-1.9, 1, 1, 12.5
Part-1-1.10, 1, 1, 12.5
Part-1-1.11, 1, 1, 12.5
Part-1-1.12, 1, 1, 7.5
Part-1-1.22, 1, 1, 7.5
Part-1-1.23, 1, 1, 2.5
Part-1-1.33, 1, 1, 2.5
Part-1-1.34, 1, 1, -2.5
Part-1-1.44, 1, 1, -2.5
Part-1-1.45, 1, 1, -7.5
Part-1-1.55, 1, 1, -7.5
Part-1-1.56, 1, 1, -12.5
** ... 70 like lines cut
** 
** OUTPUT REQUESTS
** 
*Restart, write, frequency=0
** 
** FIELD OUTPUT: F-Output-1
** 
*Output, field
*Node Output, GLOBAL = YES
COORD, U, UR, UT, V, VR, VT
*Element Output, directions=YES, POSITION=AVERAGED AT NODES
LE, S
*EL PRINT, POSITION=AVERAGED AT NODES
DG, S
** 
** HISTORY OUTPUT: H-Output-1
**
*Output, history, variable=PRESELECT
*End Step
