1

   Abaqus 3DEXPERIENCE R2017x                                  Date 13-Jan-2019   Time 14:40:30
   For use by OREGON STATE UNIVERSITY under license from Dassault Systemes or its subsidiary.



                         The Abaqus Software is a product of:

                           Dassault Systemes SIMULIA Corp.
                           1301 Atwood Avenue, Suite 101W
                              Johnston, RI 02919, USA
 


                   The Abaqus Software is available only under license
                   from Dassault Systemes or its subsidiary and may be
                   used or reproduced only in accordance with the terms
                   of such license.
 
                          On machine whitestones 
                          you are authorized to run
                          Abaqus/Standard until 15-Aug-2019

                          Your site id is: 200000000024345 


 
                    For assistance or any other information you may
                    obtain contact information for your local office
                    from the world wide web at:

                      http://www.3ds.com/products/simulia/locations/

 
                * * * * * * * * * * * * * * * * * * * * * * * * * * * * * * 
                *                                                         * 
                *                   *****************                     * 
                *                   *  N O T I C E  *                     * 
                *                   *****************                     * 
                *                                                         * 
                *                                                         * 
                *               Abaqus 3DEXPERIENCE R2017x                * 
                *                                                         * 
                *          BUILD ID: 2016_09_27-14.54.59 126836           * 
                *                                                         * 
                *                                                         * 
                *  Please make sure you are using                         * 
                *  release 3DEXPERIENCE R2017x manuals                    * 
                *  plus the notes accompanying this release.              * 
                *                                                         * 
                *                                                         * 
                *                                                         * 
                *                                                         * 
                *                                                         * 
                *   This program may not be used for commercial purposes  * 
                *           without payment of a commercial fee.          * 
                *                                                         * 
                * * * * * * * * * * * * * * * * * * * * * * * * * * * * * * 


 



     PROCESSING PART, INSTANCE, AND ASSEMBLY INFORMATION
   *******************************************************


     END PROCESSING PART, INSTANCE, AND ASSEMBLY INFORMATION
   ***********************************************************




     OPTIONS BEING PROCESSED
   ***************************


  *Heading
  *Node
  *Element, type=S3

 ***NOTE: ELEMENT TYPES S3 AND S3R ARE IDENTICAL. ELEMENT TYPE S3 WILL BE 
          REFERRED TO AS S3R FROM HERE ON
  *Nset, nset=ASSEMBLY_PART-1-1__PICKEDSET5
  *Elset, elset=ASSEMBLY_PART-1-1__PICKEDSET5
  *Nset, nset=ASSEMBLY_SET-BC
  *Elset, elset=ASSEMBLY_SET-BC
  *material, name=MATERIAL-1
  *hyperelastic, neohooke
  *material, name=MATERIAL-2
  *usermaterial, constants=2
  *shellsection, elset=ASSEMBLY_PART-1-1__PICKEDSET5, material=MATERIAL-1
  *shellsection, elset=ASSEMBLY_PART-1-1__PICKEDSET5, material=MATERIAL-1
  *boundary
  *boundary
  *output, field
  *output, history, variable=PRESELECT
  *elementoutput, directions=NO
  *output, field
  *output, history, variable=PRESELECT
  *elementoutput, directions=NO
  *output, field
  *output, history, variable=PRESELECT
  *elementoutput, directions=NO
  *Step, name=Step-1, nlgeom=YES
  *output, field
  *output, history, variable=PRESELECT
  *Step, name=Step-1, nlgeom=YES
  *Step, name=Step-1, nlgeom=YES
  *static
  *boundary
  *output, field
  *nodeoutput, global=YES

 ***WARNING: THE GLOBAL PARAMETER IS ONLY VALID FOR NODAL HISTORY OUTPUT.
  *elementoutput, directions=NO
  *elprint

 ***WARNING: OUTPUT REQUEST DG IS ONLY AVAILABLE FOR *HYPERELASTIC/FOAM AND 
             *USER MATERIAL.
  *output, history, variable=PRESELECT
  *endstep

 ***WARNING: OUTPUT REQUEST V IS NOT AVAILABLE FOR THIS TYPE OF ANALYSIS

 ***WARNING: OUTPUT REQUEST VT IS NOT AVAILABLE FOR THIS TYPE OF ANALYSIS
  *Step, name=Step-1, nlgeom=YES
  *static
  *boundary
  *endstep

 ***WARNING: USER SUBROUTINE UMAT WILL BE USED WITH THE STAVEV ARRAY 
             DIMENSIONED TO ZERO SINCE THE *DEPVAR OPTION IS NOT USED WITH THIS 
             MATERIAL. CONSEQUENTLY, DEFINING STATEV ENTRIES IN SUBROUTINE UMAT 
             WILL CAUSE CODE EXECUTION ERRORS.


                              E L E M E N T,   N O D E,   A N D   S U R F A C E   M A P S


**NOTE: This section may not include complete information about
        members of sets and surfaces. Use *PREPRINT, MODEL=YES 
        in order to get the set and surface members printed    
        under the following sections:                          
            - E L E M E N T   S E T S                          
            - N O D E   S E T S                                
            - S U R F A C E   D E F I N I T I O N S .          


Assembly name: ASSEMBLY
Number of instances: 1

ASSEMBLY LEVEL
  node sets:
    SET-BC:
      instance name: PART-1-1
      number of nodes: 30
      nodes: 
        1 2 3 4 5 6 7 8 9 10 11 12 22 23 33 34 44 45 55 56 57 58 59 60
        61 62 63 64 65 66

  element sets:
    SET-BC:
      instance name: PART-1-1
      number of elements: 28
      elements: 
        1 2 3 5 7 9 11 13 15 17 19 22 39 42 59 62 79 82 84 86 88 90 92
        94 96 98 99 100

  Surfaces:

INSTANCE LEVEL
  node sets:
    Instance name: PART-1-1

  element sets:
    Instance name: PART-1-1

  Surfaces:

GLOBAL TO LOCAL NODE AND ELEMENT MAPS
  Global     Local      
  node       node       
  number     number     
                        Instance name                                   
   1          1         PART-1-1                                        
   2          2         PART-1-1                                        
   3          3         PART-1-1                                        
   4          4         PART-1-1                                        
   5          5         PART-1-1                                        
   6          6         PART-1-1                                        
   7          7         PART-1-1                                        
   8          8         PART-1-1                                        
   9          9         PART-1-1                                        
   10         10        PART-1-1                                        
   11         11        PART-1-1                                        
   12         12        PART-1-1                                        
   13         13        PART-1-1                                        
   14         14        PART-1-1                                        
   15         15        PART-1-1                                        
   16         16        PART-1-1                                        
   17         17        PART-1-1                                        
   18         18        PART-1-1                                        
   19         19        PART-1-1                                        
   20         20        PART-1-1                                        
   21         21        PART-1-1                                        
   22         22        PART-1-1                                        
   23         23        PART-1-1                                        
   24         24        PART-1-1                                        
   25         25        PART-1-1                                        
   26         26        PART-1-1                                        
   27         27        PART-1-1                                        
   28         28        PART-1-1                                        
   29         29        PART-1-1                                        
   30         30        PART-1-1                                        
   31         31        PART-1-1                                        
   32         32        PART-1-1                                        
   33         33        PART-1-1                                        
   34         34        PART-1-1                                        
   35         35        PART-1-1                                        
   36         36        PART-1-1                                        
   37         37        PART-1-1                                        
   38         38        PART-1-1                                        
   39         39        PART-1-1                                        
   40         40        PART-1-1                                        
   41         41        PART-1-1                                        
   42         42        PART-1-1                                        
   43         43        PART-1-1                                        
   44         44        PART-1-1                                        
   45         45        PART-1-1                                        
   46         46        PART-1-1                                        
   47         47        PART-1-1                                        
   48         48        PART-1-1                                        
   49         49        PART-1-1                                        
   50         50        PART-1-1                                        
   51         51        PART-1-1                                        
   52         52        PART-1-1                                        
   53         53        PART-1-1                                        
   54         54        PART-1-1                                        
   55         55        PART-1-1                                        
   56         56        PART-1-1                                        
   57         57        PART-1-1                                        
   58         58        PART-1-1                                        
   59         59        PART-1-1                                        
   60         60        PART-1-1                                        
   61         61        PART-1-1                                        
   62         62        PART-1-1                                        
   63         63        PART-1-1                                        
   64         64        PART-1-1                                        
   65         65        PART-1-1                                        
   66         66        PART-1-1                                        

  Global     Local      
  element    element    
  number     number     
                        Instance name                                   
   1          1         PART-1-1                                        
   2          2         PART-1-1                                        
   3          3         PART-1-1                                        
   4          4         PART-1-1                                        
   5          5         PART-1-1                                        
   6          6         PART-1-1                                        
   7          7         PART-1-1                                        
   8          8         PART-1-1                                        
   9          9         PART-1-1                                        
   10         10        PART-1-1                                        
   11         11        PART-1-1                                        
   12         12        PART-1-1                                        
   13         13        PART-1-1                                        
   14         14        PART-1-1                                        
   15         15        PART-1-1                                        
   16         16        PART-1-1                                        
   17         17        PART-1-1                                        
   18         18        PART-1-1                                        
   19         19        PART-1-1                                        
   20         20        PART-1-1                                        
   21         21        PART-1-1                                        
   22         22        PART-1-1                                        
   23         23        PART-1-1                                        
   24         24        PART-1-1                                        
   25         25        PART-1-1                                        
   26         26        PART-1-1                                        
   27         27        PART-1-1                                        
   28         28        PART-1-1                                        
   29         29        PART-1-1                                        
   30         30        PART-1-1                                        
   31         31        PART-1-1                                        
   32         32        PART-1-1                                        
   33         33        PART-1-1                                        
   34         34        PART-1-1                                        
   35         35        PART-1-1                                        
   36         36        PART-1-1                                        
   37         37        PART-1-1                                        
   38         38        PART-1-1                                        
   39         39        PART-1-1                                        
   40         40        PART-1-1                                        
   41         41        PART-1-1                                        
   42         42        PART-1-1                                        
   43         43        PART-1-1                                        
   44         44        PART-1-1                                        
   45         45        PART-1-1                                        
   46         46        PART-1-1                                        
   47         47        PART-1-1                                        
   48         48        PART-1-1                                        
   49         49        PART-1-1                                        
   50         50        PART-1-1                                        
   51         51        PART-1-1                                        
   52         52        PART-1-1                                        
   53         53        PART-1-1                                        
   54         54        PART-1-1                                        
   55         55        PART-1-1                                        
   56         56        PART-1-1                                        
   57         57        PART-1-1                                        
   58         58        PART-1-1                                        
   59         59        PART-1-1                                        
   60         60        PART-1-1                                        
   61         61        PART-1-1                                        
   62         62        PART-1-1                                        
   63         63        PART-1-1                                        
   64         64        PART-1-1                                        
   65         65        PART-1-1                                        
   66         66        PART-1-1                                        
   67         67        PART-1-1                                        
   68         68        PART-1-1                                        
   69         69        PART-1-1                                        
   70         70        PART-1-1                                        
   71         71        PART-1-1                                        
   72         72        PART-1-1                                        
   73         73        PART-1-1                                        
   74         74        PART-1-1                                        
   75         75        PART-1-1                                        
   76         76        PART-1-1                                        
   77         77        PART-1-1                                        
   78         78        PART-1-1                                        
   79         79        PART-1-1                                        
   80         80        PART-1-1                                        
   81         81        PART-1-1                                        
   82         82        PART-1-1                                        
   83         83        PART-1-1                                        
   84         84        PART-1-1                                        
   85         85        PART-1-1                                        
   86         86        PART-1-1                                        
   87         87        PART-1-1                                        
   88         88        PART-1-1                                        
   89         89        PART-1-1                                        
   90         90        PART-1-1                                        
   91         91        PART-1-1                                        
   92         92        PART-1-1                                        
   93         93        PART-1-1                                        
   94         94        PART-1-1                                        
   95         95        PART-1-1                                        
   96         96        PART-1-1                                        
   97         97        PART-1-1                                        
   98         98        PART-1-1                                        
   99         99        PART-1-1                                        
   100        100       PART-1-1                                        

LOCAL TO GLOBAL NODE AND ELEMENT MAPS
                                                  Local      Global     
                                                  node       node       
                                                  number     number
  Instance name
  PART-1-1                                         1          1         
  PART-1-1                                         2          2         
  PART-1-1                                         3          3         
  PART-1-1                                         4          4         
  PART-1-1                                         5          5         
  PART-1-1                                         6          6         
  PART-1-1                                         7          7         
  PART-1-1                                         8          8         
  PART-1-1                                         9          9         
  PART-1-1                                         10         10        
  PART-1-1                                         11         11        
  PART-1-1                                         12         12        
  PART-1-1                                         13         13        
  PART-1-1                                         14         14        
  PART-1-1                                         15         15        
  PART-1-1                                         16         16        
  PART-1-1                                         17         17        
  PART-1-1                                         18         18        
  PART-1-1                                         19         19        
  PART-1-1                                         20         20        
  PART-1-1                                         21         21        
  PART-1-1                                         22         22        
  PART-1-1                                         23         23        
  PART-1-1                                         24         24        
  PART-1-1                                         25         25        
  PART-1-1                                         26         26        
  PART-1-1                                         27         27        
  PART-1-1                                         28         28        
  PART-1-1                                         29         29        
  PART-1-1                                         30         30        
  PART-1-1                                         31         31        
  PART-1-1                                         32         32        
  PART-1-1                                         33         33        
  PART-1-1                                         34         34        
  PART-1-1                                         35         35        
  PART-1-1                                         36         36        
  PART-1-1                                         37         37        
  PART-1-1                                         38         38        
  PART-1-1                                         39         39        
  PART-1-1                                         40         40        
  PART-1-1                                         41         41        
  PART-1-1                                         42         42        
  PART-1-1                                         43         43        
  PART-1-1                                         44         44        
  PART-1-1                                         45         45        
  PART-1-1                                         46         46        
  PART-1-1                                         47         47        
  PART-1-1                                         48         48        
  PART-1-1                                         49         49        
  PART-1-1                                         50         50        
  PART-1-1                                         51         51        
  PART-1-1                                         52         52        
  PART-1-1                                         53         53        
  PART-1-1                                         54         54        
  PART-1-1                                         55         55        
  PART-1-1                                         56         56        
  PART-1-1                                         57         57        
  PART-1-1                                         58         58        
  PART-1-1                                         59         59        
  PART-1-1                                         60         60        
  PART-1-1                                         61         61        
  PART-1-1                                         62         62        
  PART-1-1                                         63         63        
  PART-1-1                                         64         64        
  PART-1-1                                         65         65        
  PART-1-1                                         66         66        

                                                  Local      Global     
                                                  element    element    
                                                  number     number
  Instance name
  PART-1-1                                         1          1         
  PART-1-1                                         2          2         
  PART-1-1                                         3          3         
  PART-1-1                                         4          4         
  PART-1-1                                         5          5         
  PART-1-1                                         6          6         
  PART-1-1                                         7          7         
  PART-1-1                                         8          8         
  PART-1-1                                         9          9         
  PART-1-1                                         10         10        
  PART-1-1                                         11         11        
  PART-1-1                                         12         12        
  PART-1-1                                         13         13        
  PART-1-1                                         14         14        
  PART-1-1                                         15         15        
  PART-1-1                                         16         16        
  PART-1-1                                         17         17        
  PART-1-1                                         18         18        
  PART-1-1                                         19         19        
  PART-1-1                                         20         20        
  PART-1-1                                         21         21        
  PART-1-1                                         22         22        
  PART-1-1                                         23         23        
  PART-1-1                                         24         24        
  PART-1-1                                         25         25        
  PART-1-1                                         26         26        
  PART-1-1                                         27         27        
  PART-1-1                                         28         28        
  PART-1-1                                         29         29        
  PART-1-1                                         30         30        
  PART-1-1                                         31         31        
  PART-1-1                                         32         32        
  PART-1-1                                         33         33        
  PART-1-1                                         34         34        
  PART-1-1                                         35         35        
  PART-1-1                                         36         36        
  PART-1-1                                         37         37        
  PART-1-1                                         38         38        
  PART-1-1                                         39         39        
  PART-1-1                                         40         40        
  PART-1-1                                         41         41        
  PART-1-1                                         42         42        
  PART-1-1                                         43         43        
  PART-1-1                                         44         44        
  PART-1-1                                         45         45        
  PART-1-1                                         46         46        
  PART-1-1                                         47         47        
  PART-1-1                                         48         48        
  PART-1-1                                         49         49        
  PART-1-1                                         50         50        
  PART-1-1                                         51         51        
  PART-1-1                                         52         52        
  PART-1-1                                         53         53        
  PART-1-1                                         54         54        
  PART-1-1                                         55         55        
  PART-1-1                                         56         56        
  PART-1-1                                         57         57        
  PART-1-1                                         58         58        
  PART-1-1                                         59         59        
  PART-1-1                                         60         60        
  PART-1-1                                         61         61        
  PART-1-1                                         62         62        
  PART-1-1                                         63         63        
  PART-1-1                                         64         64        
  PART-1-1                                         65         65        
  PART-1-1                                         66         66        
  PART-1-1                                         67         67        
  PART-1-1                                         68         68        
  PART-1-1                                         69         69        
  PART-1-1                                         70         70        
  PART-1-1                                         71         71        
  PART-1-1                                         72         72        
  PART-1-1                                         73         73        
  PART-1-1                                         74         74        
  PART-1-1                                         75         75        
  PART-1-1                                         76         76        
  PART-1-1                                         77         77        
  PART-1-1                                         78         78        
  PART-1-1                                         79         79        
  PART-1-1                                         80         80        
  PART-1-1                                         81         81        
  PART-1-1                                         82         82        
  PART-1-1                                         83         83        
  PART-1-1                                         84         84        
  PART-1-1                                         85         85        
  PART-1-1                                         86         86        
  PART-1-1                                         87         87        
  PART-1-1                                         88         88        
  PART-1-1                                         89         89        
  PART-1-1                                         90         90        
  PART-1-1                                         91         91        
  PART-1-1                                         92         92        
  PART-1-1                                         93         93        
  PART-1-1                                         94         94        
  PART-1-1                                         95         95        
  PART-1-1                                         96         96        
  PART-1-1                                         97         97        
  PART-1-1                                         98         98        
  PART-1-1                                         99         99        
  PART-1-1                                         100        100       




                            P R O B L E M   S I Z E


          NUMBER OF ELEMENTS IS                                   100
          NUMBER OF NODES IS                                       66
          NUMBER OF NODES DEFINED BY THE USER                      66
          TOTAL NUMBER OF VARIABLES IN THE MODEL                  396
          (DEGREES OF FREEDOM PLUS MAX NO. OF ANY LAGRANGE MULTIPLIER
           VARIABLES. INCLUDE *PRINT,SOLVE=YES TO GET THE ACTUAL NUMBER.)



                              END OF USER INPUT PROCESSING



     JOB TIME SUMMARY
       USER TIME (SEC)      =  0.10000    
       SYSTEM TIME (SEC)    =  0.10000    
       TOTAL CPU TIME (SEC) =  0.20000    
       WALLCLOCK TIME (SEC) =          1
1

   Abaqus 3DEXPERIENCE R2017x                                  Date 13-Jan-2019   Time 14:40:33
   For use by OREGON STATE UNIVERSITY under license from Dassault Systemes or its subsidiary.

                                                                                               STEP    1  INCREMENT    1
                                                                                          TIME COMPLETED IN THIS STEP   0.00    


                        S T E P       1     S T A T I C   A N A L Y S I S


                                                                                          

     AUTOMATIC TIME CONTROL WITH -
          A SUGGESTED INITIAL TIME INCREMENT OF                 1.00    
          AND A TOTAL TIME PERIOD OF                            1.00    
          THE MINIMUM TIME INCREMENT ALLOWED IS                1.000E-05
          THE MAXIMUM TIME INCREMENT ALLOWED IS                 1.00    

     LINEAR EQUATION SOLVER TYPE         DIRECT SPARSE

          LARGE DISPLACEMENT THEORY WILL BE USED
  
                   M E M O R Y   E S T I M A T E
  
 PROCESS      FLOATING PT       MINIMUM MEMORY        MEMORY TO
              OPERATIONS           REQUIRED          MINIMIZE I/O
             PER ITERATION           (MB)               (MB)
  
     1         8.44E+005               17                 24
  
 NOTE:
      (1) SINCE ABAQUS DOES NOT PRE-ALLOCATE MEMORY AND ONLY ALLOCATES MEMORY AS NEEDED DURING THE ANALYSIS,
          THE MEMORY REQUIREMENT PRINTED HERE CAN ONLY BE VIEWED AS A GENERAL GUIDELINE BASED ON THE BEST
          KNOWLEDGE AVAILABLE AT THE BEGINNING OF A STEP BEFORE THE SOLUTION PROCESS HAS BEGUN.
      (2) THE ESTIMATE IS NORMALLY UPDATED AT THE BEGINNING OF EVERY STEP. IT IS THE MAXIMUM VALUE OF THE
          ESTIMATE FROM THE CURRENT STEP TO THE LAST STEP OF THE ANALYSIS, WITH UNSYMMETRIC SOLUTION TAKEN
          INTO ACCOUNT IF APPLICABLE. 
      (3) SINCE THE ESTIMATE IS BASED ON THE ACTIVE DEGREES OF FREEDOM IN THE FIRST ITERATION OF THE 
          CURRENT STEP, THE MEMORY ESTIMATE MIGHT BE SIGNIFICANTLY DIFFERENT THAN ACTUAL USAGE FOR 
          PROBLEMS WITH SUBSTANTIAL CHANGES IN ACTIVE DEGREES OF FREEDOM BETWEEN STEPS (OR EVEN WITHIN
          THE SAME STEP). EXAMPLES ARE: PROBLEMS WITH SIGNIFICANT CONTACT CHANGES, PROBLEMS WITH MODEL
          CHANGE, PROBLEMS WITH BOTH STATIC STEP AND STEADY STATE DYNAMIC PROCEDURES WHERE ACOUSTIC 
          ELEMENTS WILL ONLY BE ACTIVATED IN THE STEADY STATE DYNAMIC STEPS.
      (4) FOR MULTI-PROCESS EXECUTION, THE ESTIMATED VALUE OF FLOATING POINT OPERATIONS FOR EACH PROCESS
          IS BASED ON AN INITIAL SCHEDULING OF OPERATIONS AND MIGHT NOT REFLECT THE ACTUAL FLOATING 
          POINT OPERATIONS COMPLETED ON EACH PROCESS. OPERATIONS ARE DYNAMICALLY BALANCED DURING EXECUTION, 
          SO THE ACTUAL BALANCE OF OPERATIONS BETWEEN PROCESSES IS EXPECTED TO BE BETTER THAN THE ESTIMATE
          PRINTED HERE.
      (5) THE UPPER LIMIT OF MEMORY THAT CAN BE ALLOCATED BY ABAQUS WILL IN GENERAL DEPEND ON THE VALUE OF
          THE "MEMORY" PARAMETER AND THE AMOUNT OF PHYSICAL MEMORY AVAILABLE ON THE MACHINE. PLEASE SEE
          THE "ABAQUS ANALYSIS USER'S MANUAL" FOR MORE DETAILS. THE ACTUAL USAGE OF MEMORY AND OF DISK
          SPACE FOR SCRATCH DATA WILL DEPEND ON THIS UPPER LIMIT AS WELL AS THE MEMORY REQUIRED TO MINIMIZE
          I/O. IF THE MEMORY UPPER LIMIT IS GREATER THAN THE MEMORY REQUIRED TO MINIMIZE I/O, THEN THE ACTUAL
          MEMORY USAGE WILL BE CLOSE TO THE ESTIMATED "MEMORY TO MINIMIZE I/O" VALUE, AND THE SCRATCH DISK
          USAGE WILL BE CLOSE-TO-ZERO; OTHERWISE, THE ACTUAL MEMORY USED WILL BE CLOSE TO THE PREVIOUSLY
          MENTIONED MEMORY LIMIT, AND THE SCRATCH DISK USAGE WILL BE ROUGHLY PROPORTIONAL TO THE DIFFERENCE
          BETWEEN THE ESTIMATED "MEMORY TO MINIMIZE I/O" AND THE MEMORY UPPER LIMIT. HOWEVER ACCURATE
          ESTIMATE OF THE SCRATCH DISK SPACE IS NOT POSSIBLE.
      (6) USING "*RESTART, WRITE" CAN GENERATE A LARGE AMOUNT OF DATA WRITTEN IN THE WORK DIRECTORY.


                                INCREMENT     1 SUMMARY


 TIME INCREMENT COMPLETED   1.00    ,  FRACTION OF STEP COMPLETED   1.00    
 STEP TIME COMPLETED        1.00    ,  TOTAL TIME COMPLETED         1.00    



                                                  E L E M E N T   O U T P U T





   THE FOLLOWING TABLE IS PRINTED FOR ALL ELEMENTS WITH TYPE S3R AT THE INTEGRATION POINTS

    ELEMENT  PT SEC FOOT-   DG11        DG22        DG12        DG21        S11         S22         S12         
                 PT NOTE 

           1   1  1      0.9701       1.091      0.2425      0.2425     -1.0242E+07  1.6004E+08  3.4057E+08
           1   1  5      0.9701       1.091      0.2425      0.2425     -1.0242E+07  1.6004E+08  3.4057E+08
           2   1  1      0.9701       1.091      0.2425      0.2425     -1.0242E+07  1.6004E+08  3.4057E+08
           2   1  5      0.9701       1.091      0.2425      0.2425     -1.0242E+07  1.6004E+08  3.4057E+08
           3   1  1      0.9701       1.091      0.2425      0.2425     -1.0242E+07  1.6004E+08  3.4057E+08
           3   1  5      0.9701       1.091      0.2425      0.2425     -1.0242E+07  1.6004E+08  3.4057E+08
           4   1  1      0.9701       1.091      0.2425      0.2425     -1.0242E+07  1.6004E+08  3.4057E+08
           4   1  5      0.9701       1.091      0.2425      0.2425     -1.0242E+07  1.6004E+08  3.4057E+08
           5   1  1      0.9701       1.091      0.2425      0.2425     -1.0242E+07  1.6004E+08  3.4057E+08
           5   1  5      0.9701       1.091      0.2425      0.2425     -1.0242E+07  1.6004E+08  3.4057E+08
           6   1  1      0.9701       1.091      0.2425      0.2425     -1.0242E+07  1.6004E+08  3.4057E+08
           6   1  5      0.9701       1.091      0.2425      0.2425     -1.0242E+07  1.6004E+08  3.4057E+08
           7   1  1      0.9701       1.091      0.2425      0.2425     -1.0242E+07  1.6004E+08  3.4057E+08
           7   1  5      0.9701       1.091      0.2425      0.2425     -1.0242E+07  1.6004E+08  3.4057E+08
           8   1  1      0.9701       1.091      0.2425      0.2425     -1.0242E+07  1.6004E+08  3.4057E+08
           8   1  5      0.9701       1.091      0.2425      0.2425     -1.0242E+07  1.6004E+08  3.4057E+08
           9   1  1      0.9701       1.091      0.2425      0.2425     -1.0242E+07  1.6004E+08  3.4057E+08
           9   1  5      0.9701       1.091      0.2425      0.2425     -1.0242E+07  1.6004E+08  3.4057E+08
          10   1  1      0.9701       1.091      0.2425      0.2425     -1.0242E+07  1.6004E+08  3.4057E+08
          10   1  5      0.9701       1.091      0.2425      0.2425     -1.0242E+07  1.6004E+08  3.4057E+08
          11   1  1      0.9701       1.091      0.2425      0.2425     -1.0242E+07  1.6004E+08  3.4057E+08
          11   1  5      0.9701       1.091      0.2425      0.2425     -1.0242E+07  1.6004E+08  3.4057E+08
          12   1  1      0.9701       1.091      0.2425      0.2425     -1.0242E+07  1.6004E+08  3.4057E+08
          12   1  5      0.9701       1.091      0.2425      0.2425     -1.0242E+07  1.6004E+08  3.4057E+08
          13   1  1      0.9701       1.091      0.2425      0.2425     -1.0242E+07  1.6004E+08  3.4057E+08
          13   1  5      0.9701       1.091      0.2425      0.2425     -1.0242E+07  1.6004E+08  3.4057E+08
          14   1  1      0.9701       1.091      0.2425      0.2425     -1.0242E+07  1.6004E+08  3.4057E+08
          14   1  5      0.9701       1.091      0.2425      0.2425     -1.0242E+07  1.6004E+08  3.4057E+08
          15   1  1      0.9701       1.091      0.2425      0.2425     -1.0242E+07  1.6004E+08  3.4057E+08
          15   1  5      0.9701       1.091      0.2425      0.2425     -1.0242E+07  1.6004E+08  3.4057E+08
          16   1  1      0.9701       1.091      0.2425      0.2425     -1.0242E+07  1.6004E+08  3.4057E+08
          16   1  5      0.9701       1.091      0.2425      0.2425     -1.0242E+07  1.6004E+08  3.4057E+08
          17   1  1      0.9701       1.091      0.2425      0.2425     -1.0242E+07  1.6004E+08  3.4057E+08
          17   1  5      0.9701       1.091      0.2425      0.2425     -1.0242E+07  1.6004E+08  3.4057E+08
          18   1  1      0.9701       1.091      0.2425      0.2425     -1.0242E+07  1.6004E+08  3.4057E+08
          18   1  5      0.9701       1.091      0.2425      0.2425     -1.0242E+07  1.6004E+08  3.4057E+08
          19   1  1      0.9701       1.091      0.2425      0.2425     -1.0242E+07  1.6004E+08  3.4057E+08
          19   1  5      0.9701       1.091      0.2425      0.2425     -1.0242E+07  1.6004E+08  3.4057E+08
          20   1  1      0.9701       1.091      0.2425      0.2425     -1.0242E+07  1.6004E+08  3.4057E+08
          20   1  5      0.9701       1.091      0.2425      0.2425     -1.0242E+07  1.6004E+08  3.4057E+08
          21   1  1      0.9701       1.091      0.2425      0.2425     -1.0242E+07  1.6004E+08  3.4057E+08
          21   1  5      0.9701       1.091      0.2425      0.2425     -1.0242E+07  1.6004E+08  3.4057E+08
          22   1  1      0.9701       1.091      0.2425      0.2425     -1.0242E+07  1.6004E+08  3.4057E+08
          22   1  5      0.9701       1.091      0.2425      0.2425     -1.0242E+07  1.6004E+08  3.4057E+08
          23   1  1      0.9701       1.091      0.2425      0.2425     -1.0242E+07  1.6004E+08  3.4057E+08
          23   1  5      0.9701       1.091      0.2425      0.2425     -1.0242E+07  1.6004E+08  3.4057E+08
          24   1  1      0.9701       1.091      0.2425      0.2425     -1.0242E+07  1.6004E+08  3.4057E+08
          24   1  5      0.9701       1.091      0.2425      0.2425     -1.0242E+07  1.6004E+08  3.4057E+08
          25   1  1      0.9701       1.091      0.2425      0.2425     -1.0242E+07  1.6004E+08  3.4057E+08
          25   1  5      0.9701       1.091      0.2425      0.2425     -1.0242E+07  1.6004E+08  3.4057E+08
          26   1  1      0.9701       1.091      0.2425      0.2425     -1.0242E+07  1.6004E+08  3.4057E+08
          26   1  5      0.9701       1.091      0.2425      0.2425     -1.0242E+07  1.6004E+08  3.4057E+08
          27   1  1      0.9701       1.091      0.2425      0.2425     -1.0242E+07  1.6004E+08  3.4057E+08
          27   1  5      0.9701       1.091      0.2425      0.2425     -1.0242E+07  1.6004E+08  3.4057E+08
          28   1  1      0.9701       1.091      0.2425      0.2425     -1.0242E+07  1.6004E+08  3.4057E+08
          28   1  5      0.9701       1.091      0.2425      0.2425     -1.0242E+07  1.6004E+08  3.4057E+08
          29   1  1      0.9701       1.091      0.2425      0.2425     -1.0242E+07  1.6004E+08  3.4057E+08
          29   1  5      0.9701       1.091      0.2425      0.2425     -1.0242E+07  1.6004E+08  3.4057E+08
          30   1  1      0.9701       1.091      0.2425      0.2425     -1.0242E+07  1.6004E+08  3.4057E+08
          30   1  5      0.9701       1.091      0.2425      0.2425     -1.0242E+07  1.6004E+08  3.4057E+08
          31   1  1      0.9701       1.091      0.2425      0.2425     -1.0242E+07  1.6004E+08  3.4057E+08
          31   1  5      0.9701       1.091      0.2425      0.2425     -1.0242E+07  1.6004E+08  3.4057E+08
          32   1  1      0.9701       1.091      0.2425      0.2425     -1.0242E+07  1.6004E+08  3.4057E+08
          32   1  5      0.9701       1.091      0.2425      0.2425     -1.0242E+07  1.6004E+08  3.4057E+08
          33   1  1      0.9701       1.091      0.2425      0.2425     -1.0242E+07  1.6004E+08  3.4057E+08
          33   1  5      0.9701       1.091      0.2425      0.2425     -1.0242E+07  1.6004E+08  3.4057E+08
          34   1  1      0.9701       1.091      0.2425      0.2425     -1.0242E+07  1.6004E+08  3.4057E+08
          34   1  5      0.9701       1.091      0.2425      0.2425     -1.0242E+07  1.6004E+08  3.4057E+08
          35   1  1      0.9701       1.091      0.2425      0.2425     -1.0242E+07  1.6004E+08  3.4057E+08
          35   1  5      0.9701       1.091      0.2425      0.2425     -1.0242E+07  1.6004E+08  3.4057E+08
          36   1  1      0.9701       1.091      0.2425      0.2425     -1.0242E+07  1.6004E+08  3.4057E+08
          36   1  5      0.9701       1.091      0.2425      0.2425     -1.0242E+07  1.6004E+08  3.4057E+08
          37   1  1      0.9701       1.091      0.2425      0.2425     -1.0242E+07  1.6004E+08  3.4057E+08
          37   1  5      0.9701       1.091      0.2425      0.2425     -1.0242E+07  1.6004E+08  3.4057E+08
          38   1  1      0.9701       1.091      0.2425      0.2425     -1.0242E+07  1.6004E+08  3.4057E+08
          38   1  5      0.9701       1.091      0.2425      0.2425     -1.0242E+07  1.6004E+08  3.4057E+08
          39   1  1      0.9701       1.091      0.2425      0.2425     -1.0242E+07  1.6004E+08  3.4057E+08
          39   1  5      0.9701       1.091      0.2425      0.2425     -1.0242E+07  1.6004E+08  3.4057E+08
          40   1  1      0.9701       1.091      0.2425      0.2425     -1.0242E+07  1.6004E+08  3.4057E+08
          40   1  5      0.9701       1.091      0.2425      0.2425     -1.0242E+07  1.6004E+08  3.4057E+08
          41   1  1      0.9701       1.091      0.2425      0.2425     -1.0242E+07  1.6004E+08  3.4057E+08
          41   1  5      0.9701       1.091      0.2425      0.2425     -1.0242E+07  1.6004E+08  3.4057E+08
          42   1  1      0.9701       1.091      0.2425      0.2425     -1.0242E+07  1.6004E+08  3.4057E+08
          42   1  5      0.9701       1.091      0.2425      0.2425     -1.0242E+07  1.6004E+08  3.4057E+08
          43   1  1      0.9701       1.091      0.2425      0.2425     -1.0242E+07  1.6004E+08  3.4057E+08
          43   1  5      0.9701       1.091      0.2425      0.2425     -1.0242E+07  1.6004E+08  3.4057E+08
          44   1  1      0.9701       1.091      0.2425      0.2425     -1.0242E+07  1.6004E+08  3.4057E+08
          44   1  5      0.9701       1.091      0.2425      0.2425     -1.0242E+07  1.6004E+08  3.4057E+08
          45   1  1      0.9701       1.091      0.2425      0.2425     -1.0242E+07  1.6004E+08  3.4057E+08
          45   1  5      0.9701       1.091      0.2425      0.2425     -1.0242E+07  1.6004E+08  3.4057E+08
          46   1  1      0.9701       1.091      0.2425      0.2425     -1.0242E+07  1.6004E+08  3.4057E+08
          46   1  5      0.9701       1.091      0.2425      0.2425     -1.0242E+07  1.6004E+08  3.4057E+08
          47   1  1      0.9701       1.091      0.2425      0.2425     -1.0242E+07  1.6004E+08  3.4057E+08
          47   1  5      0.9701       1.091      0.2425      0.2425     -1.0242E+07  1.6004E+08  3.4057E+08
          48   1  1      0.9701       1.091      0.2425      0.2425     -1.0242E+07  1.6004E+08  3.4057E+08
          48   1  5      0.9701       1.091      0.2425      0.2425     -1.0242E+07  1.6004E+08  3.4057E+08
          49   1  1      0.9701       1.091      0.2425      0.2425     -1.0242E+07  1.6004E+08  3.4057E+08
          49   1  5      0.9701       1.091      0.2425      0.2425     -1.0242E+07  1.6004E+08  3.4057E+08
          50   1  1      0.9701       1.091      0.2425      0.2425     -1.0242E+07  1.6004E+08  3.4057E+08
          50   1  5      0.9701       1.091      0.2425      0.2425     -1.0242E+07  1.6004E+08  3.4057E+08
          51   1  1      0.9701       1.091      0.2425      0.2425     -1.0242E+07  1.6004E+08  3.4057E+08
          51   1  5      0.9701       1.091      0.2425      0.2425     -1.0242E+07  1.6004E+08  3.4057E+08
          52   1  1      0.9701       1.091      0.2425      0.2425     -1.0242E+07  1.6004E+08  3.4057E+08
          52   1  5      0.9701       1.091      0.2425      0.2425     -1.0242E+07  1.6004E+08  3.4057E+08
          53   1  1      0.9701       1.091      0.2425      0.2425     -1.0242E+07  1.6004E+08  3.4057E+08
          53   1  5      0.9701       1.091      0.2425      0.2425     -1.0242E+07  1.6004E+08  3.4057E+08
          54   1  1      0.9701       1.091      0.2425      0.2425     -1.0242E+07  1.6004E+08  3.4057E+08
          54   1  5      0.9701       1.091      0.2425      0.2425     -1.0242E+07  1.6004E+08  3.4057E+08
          55   1  1      0.9701       1.091      0.2425      0.2425     -1.0242E+07  1.6004E+08  3.4057E+08
          55   1  5      0.9701       1.091      0.2425      0.2425     -1.0242E+07  1.6004E+08  3.4057E+08
          56   1  1      0.9701       1.091      0.2425      0.2425     -1.0242E+07  1.6004E+08  3.4057E+08
          56   1  5      0.9701       1.091      0.2425      0.2425     -1.0242E+07  1.6004E+08  3.4057E+08
          57   1  1      0.9701       1.091      0.2425      0.2425     -1.0242E+07  1.6004E+08  3.4057E+08
          57   1  5      0.9701       1.091      0.2425      0.2425     -1.0242E+07  1.6004E+08  3.4057E+08
          58   1  1      0.9701       1.091      0.2425      0.2425     -1.0242E+07  1.6004E+08  3.4057E+08
          58   1  5      0.9701       1.091      0.2425      0.2425     -1.0242E+07  1.6004E+08  3.4057E+08
          59   1  1      0.9701       1.091      0.2425      0.2425     -1.0242E+07  1.6004E+08  3.4057E+08
          59   1  5      0.9701       1.091      0.2425      0.2425     -1.0242E+07  1.6004E+08  3.4057E+08
          60   1  1      0.9701       1.091      0.2425      0.2425     -1.0242E+07  1.6004E+08  3.4057E+08
          60   1  5      0.9701       1.091      0.2425      0.2425     -1.0242E+07  1.6004E+08  3.4057E+08
          61   1  1      0.9701       1.091      0.2425      0.2425     -1.0242E+07  1.6004E+08  3.4057E+08
          61   1  5      0.9701       1.091      0.2425      0.2425     -1.0242E+07  1.6004E+08  3.4057E+08
          62   1  1      0.9701       1.091      0.2425      0.2425     -1.0242E+07  1.6004E+08  3.4057E+08
          62   1  5      0.9701       1.091      0.2425      0.2425     -1.0242E+07  1.6004E+08  3.4057E+08
          63   1  1      0.9701       1.091      0.2425      0.2425     -1.0242E+07  1.6004E+08  3.4057E+08
          63   1  5      0.9701       1.091      0.2425      0.2425     -1.0242E+07  1.6004E+08  3.4057E+08
          64   1  1      0.9701       1.091      0.2425      0.2425     -1.0242E+07  1.6004E+08  3.4057E+08
          64   1  5      0.9701       1.091      0.2425      0.2425     -1.0242E+07  1.6004E+08  3.4057E+08
          65   1  1      0.9701       1.091      0.2425      0.2425     -1.0242E+07  1.6004E+08  3.4057E+08
          65   1  5      0.9701       1.091      0.2425      0.2425     -1.0242E+07  1.6004E+08  3.4057E+08
          66   1  1      0.9701       1.091      0.2425      0.2425     -1.0242E+07  1.6004E+08  3.4057E+08
          66   1  5      0.9701       1.091      0.2425      0.2425     -1.0242E+07  1.6004E+08  3.4057E+08
          67   1  1      0.9701       1.091      0.2425      0.2425     -1.0242E+07  1.6004E+08  3.4057E+08
          67   1  5      0.9701       1.091      0.2425      0.2425     -1.0242E+07  1.6004E+08  3.4057E+08
          68   1  1      0.9701       1.091      0.2425      0.2425     -1.0242E+07  1.6004E+08  3.4057E+08
          68   1  5      0.9701       1.091      0.2425      0.2425     -1.0242E+07  1.6004E+08  3.4057E+08
          69   1  1      0.9701       1.091      0.2425      0.2425     -1.0242E+07  1.6004E+08  3.4057E+08
          69   1  5      0.9701       1.091      0.2425      0.2425     -1.0242E+07  1.6004E+08  3.4057E+08
          70   1  1      0.9701       1.091      0.2425      0.2425     -1.0242E+07  1.6004E+08  3.4057E+08
          70   1  5      0.9701       1.091      0.2425      0.2425     -1.0242E+07  1.6004E+08  3.4057E+08
          71   1  1      0.9701       1.091      0.2425      0.2425     -1.0242E+07  1.6004E+08  3.4057E+08
          71   1  5      0.9701       1.091      0.2425      0.2425     -1.0242E+07  1.6004E+08  3.4057E+08
          72   1  1      0.9701       1.091      0.2425      0.2425     -1.0242E+07  1.6004E+08  3.4057E+08
          72   1  5      0.9701       1.091      0.2425      0.2425     -1.0242E+07  1.6004E+08  3.4057E+08
          73   1  1      0.9701       1.091      0.2425      0.2425     -1.0242E+07  1.6004E+08  3.4057E+08
          73   1  5      0.9701       1.091      0.2425      0.2425     -1.0242E+07  1.6004E+08  3.4057E+08
          74   1  1      0.9701       1.091      0.2425      0.2425     -1.0242E+07  1.6004E+08  3.4057E+08
          74   1  5      0.9701       1.091      0.2425      0.2425     -1.0242E+07  1.6004E+08  3.4057E+08
          75   1  1      0.9701       1.091      0.2425      0.2425     -1.0242E+07  1.6004E+08  3.4057E+08
          75   1  5      0.9701       1.091      0.2425      0.2425     -1.0242E+07  1.6004E+08  3.4057E+08
          76   1  1      0.9701       1.091      0.2425      0.2425     -1.0242E+07  1.6004E+08  3.4057E+08
          76   1  5      0.9701       1.091      0.2425      0.2425     -1.0242E+07  1.6004E+08  3.4057E+08
          77   1  1      0.9701       1.091      0.2425      0.2425     -1.0242E+07  1.6004E+08  3.4057E+08
          77   1  5      0.9701       1.091      0.2425      0.2425     -1.0242E+07  1.6004E+08  3.4057E+08
          78   1  1      0.9701       1.091      0.2425      0.2425     -1.0242E+07  1.6004E+08  3.4057E+08
          78   1  5      0.9701       1.091      0.2425      0.2425     -1.0242E+07  1.6004E+08  3.4057E+08
          79   1  1      0.9701       1.091      0.2425      0.2425     -1.0242E+07  1.6004E+08  3.4057E+08
          79   1  5      0.9701       1.091      0.2425      0.2425     -1.0242E+07  1.6004E+08  3.4057E+08
          80   1  1      0.9701       1.091      0.2425      0.2425     -1.0242E+07  1.6004E+08  3.4057E+08
          80   1  5      0.9701       1.091      0.2425      0.2425     -1.0242E+07  1.6004E+08  3.4057E+08
          81   1  1      0.9701       1.091      0.2425      0.2425     -1.0242E+07  1.6004E+08  3.4057E+08
          81   1  5      0.9701       1.091      0.2425      0.2425     -1.0242E+07  1.6004E+08  3.4057E+08
          82   1  1      0.9701       1.091      0.2425      0.2425     -1.0242E+07  1.6004E+08  3.4057E+08
          82   1  5      0.9701       1.091      0.2425      0.2425     -1.0242E+07  1.6004E+08  3.4057E+08
          83   1  1      0.9701       1.091      0.2425      0.2425     -1.0242E+07  1.6004E+08  3.4057E+08
          83   1  5      0.9701       1.091      0.2425      0.2425     -1.0242E+07  1.6004E+08  3.4057E+08
          84   1  1      0.9701       1.091      0.2425      0.2425     -1.0242E+07  1.6004E+08  3.4057E+08
          84   1  5      0.9701       1.091      0.2425      0.2425     -1.0242E+07  1.6004E+08  3.4057E+08
          85   1  1      0.9701       1.091      0.2425      0.2425     -1.0242E+07  1.6004E+08  3.4057E+08
          85   1  5      0.9701       1.091      0.2425      0.2425     -1.0242E+07  1.6004E+08  3.4057E+08
          86   1  1      0.9701       1.091      0.2425      0.2425     -1.0242E+07  1.6004E+08  3.4057E+08
          86   1  5      0.9701       1.091      0.2425      0.2425     -1.0242E+07  1.6004E+08  3.4057E+08
          87   1  1      0.9701       1.091      0.2425      0.2425     -1.0242E+07  1.6004E+08  3.4057E+08
          87   1  5      0.9701       1.091      0.2425      0.2425     -1.0242E+07  1.6004E+08  3.4057E+08
          88   1  1      0.9701       1.091      0.2425      0.2425     -1.0242E+07  1.6004E+08  3.4057E+08
          88   1  5      0.9701       1.091      0.2425      0.2425     -1.0242E+07  1.6004E+08  3.4057E+08
          89   1  1      0.9701       1.091      0.2425      0.2425     -1.0242E+07  1.6004E+08  3.4057E+08
          89   1  5      0.9701       1.091      0.2425      0.2425     -1.0242E+07  1.6004E+08  3.4057E+08
          90   1  1      0.9701       1.091      0.2425      0.2425     -1.0242E+07  1.6004E+08  3.4057E+08
          90   1  5      0.9701       1.091      0.2425      0.2425     -1.0242E+07  1.6004E+08  3.4057E+08
          91   1  1      0.9701       1.091      0.2425      0.2425     -1.0242E+07  1.6004E+08  3.4057E+08
          91   1  5      0.9701       1.091      0.2425      0.2425     -1.0242E+07  1.6004E+08  3.4057E+08
          92   1  1      0.9701       1.091      0.2425      0.2425     -1.0242E+07  1.6004E+08  3.4057E+08
          92   1  5      0.9701       1.091      0.2425      0.2425     -1.0242E+07  1.6004E+08  3.4057E+08
          93   1  1      0.9701       1.091      0.2425      0.2425     -1.0242E+07  1.6004E+08  3.4057E+08
          93   1  5      0.9701       1.091      0.2425      0.2425     -1.0242E+07  1.6004E+08  3.4057E+08
          94   1  1      0.9701       1.091      0.2425      0.2425     -1.0242E+07  1.6004E+08  3.4057E+08
          94   1  5      0.9701       1.091      0.2425      0.2425     -1.0242E+07  1.6004E+08  3.4057E+08
          95   1  1      0.9701       1.091      0.2425      0.2425     -1.0242E+07  1.6004E+08  3.4057E+08
          95   1  5      0.9701       1.091      0.2425      0.2425     -1.0242E+07  1.6004E+08  3.4057E+08
          96   1  1      0.9701       1.091      0.2425      0.2425     -1.0242E+07  1.6004E+08  3.4057E+08
          96   1  5      0.9701       1.091      0.2425      0.2425     -1.0242E+07  1.6004E+08  3.4057E+08
          97   1  1      0.9701       1.091      0.2425      0.2425     -1.0242E+07  1.6004E+08  3.4057E+08
          97   1  5      0.9701       1.091      0.2425      0.2425     -1.0242E+07  1.6004E+08  3.4057E+08
          98   1  1      0.9701       1.091      0.2425      0.2425     -1.0242E+07  1.6004E+08  3.4057E+08
          98   1  5      0.9701       1.091      0.2425      0.2425     -1.0242E+07  1.6004E+08  3.4057E+08
          99   1  1      0.9701       1.091      0.2425      0.2425     -1.0242E+07  1.6004E+08  3.4057E+08
          99   1  5      0.9701       1.091      0.2425      0.2425     -1.0242E+07  1.6004E+08  3.4057E+08
         100   1  1      0.9701       1.091      0.2425      0.2425     -1.0242E+07  1.6004E+08  3.4057E+08
         100   1  5      0.9701       1.091      0.2425      0.2425     -1.0242E+07  1.6004E+08  3.4057E+08

 MAXIMUM                0.9701       1.091      0.2425      0.2425     -1.0242E+07  1.6004E+08  3.4057E+08                        
 ELEMENT                       26          49          56          95          26          12          27                         

 MINIMUM                0.9701       1.091      0.2425      0.2425     -1.0242E+07  1.6004E+08  3.4057E+08                        
 ELEMENT                       47          87          73          73          56          87          73                         


          THE ANALYSIS HAS BEEN COMPLETED



                              ANALYSIS COMPLETE
                              WITH      5 WARNING MESSAGES ON THE DAT FILE
                              AND       1 WARNING MESSAGES ON THE MSG FILE
                                        1 WARNINGS ARE FOR NEGATIVE EIGENVALUES



     JOB TIME SUMMARY
       USER TIME (SEC)      =  0.10000    
       SYSTEM TIME (SEC)    =  0.10000    
       TOTAL CPU TIME (SEC) =  0.20000    
       WALLCLOCK TIME (SEC) =          1
