1

   Abaqus 6.14-1                                  Date 14-Jan-2019   Time 00:37:41
   For use at OREGON STATE UNIVERSITY under license from Dassault Systemes or its subsidiary.



                         The Abaqus Software is a product of:

                           Dassault Systemes Simulia Corp.
                                 Rising Sun Mills
                                 166 Valley Street
                           Providence, RI 02909-2499, USA
 


                   Available for internal use at OREGON STATE UNIVERSITY. 
                   The Abaqus Online Support System is accessible
                   through the "My Support" section of the SIMULIA
                   Home Page at http://www.simulia.com.

                   Support policies for academic licenses are described
                   on the SIMULIA web site at
                   http://www.3ds.com/products/simulia/academics/
 
                          On machine whitestones 
                          you are authorized to run
                          Abaqus/Standard until 15-Aug-2019

                          Your site id is: 200000000024345 


 
                    For assistance or any other information you may
                    obtain contact information for your local office
                    from the world wide web at:

                      http://www.3ds.com/products/simulia/locations/

 
                * * * * * * * * * * * * * * * * * * * * * * * * * * * * * * 
                *                                                         * 
                *                   *****************                     * 
                *                   *  N O T I C E  *                     * 
                *                   *****************                     * 
                *                                                         * 
                *                                                         * 
                *                    Abaqus 6.14-1                        * 
                *                                                         * 
                *          BUILD ID: 2014_06_04-15.11.02 134264           * 
                *                                                         * 
                *                                                         * 
                *  Please make sure you are using release 6.14 manuals    * 
                *  plus the notes accompanying this release.              * 
                *                                                         * 
                *                                                         * 
                *                                                         * 
                *                                                         * 
                *                                                         * 
                *   This program may not be used for commercial purposes  * 
                *           without payment of a commercial fee.          * 
                *                                                         * 
                * * * * * * * * * * * * * * * * * * * * * * * * * * * * * * 


 



     PROCESSING PART, INSTANCE, AND ASSEMBLY INFORMATION
   *******************************************************


     END PROCESSING PART, INSTANCE, AND ASSEMBLY INFORMATION
   ***********************************************************




     OPTIONS BEING PROCESSED
   ***************************


  *Heading
  *Node
  *Element, type=C3D4
  *Nset, nset=ASSEMBLY_PART-1-1__PICKEDSET8
  *Elset, elset=ASSEMBLY_PART-1-1__PICKEDSET8
  *Elset, elset=ASSEMBLY_PART-1-1__SURF-1_S1
  *Elset, elset=ASSEMBLY_PART-1-1__SURF-1_S2
  *Elset, elset=ASSEMBLY_PART-1-1__SURF-1_S3
  *Elset, elset=ASSEMBLY_PART-1-1__SURF-1_S4
  *Nset, nset=ASSEMBLY_SET-BC
  *Elset, elset=ASSEMBLY_SET-BC
  *surface, type=ELEMENT, name=ASSEMBLY_PART-1-1_SURF-1
  *surface, type=ELEMENT, name=ASSEMBLY_PART-1-1_SURF-1
  *material, name=MATERIAL-1
  *hyperelastic, neohooke
  *material, name=MATERIAL-2
  *usermaterial, constants=2
  *solidsection, elset=ASSEMBLY_PART-1-1__PICKEDSET8, material=MATERIAL-1
  *boundary
  *solidsection, elset=ASSEMBLY_PART-1-1__PICKEDSET8, material=MATERIAL-1
  *surface, type=ELEMENT, name=ASSEMBLY_PART-1-1_SURF-1
  *output, field
  *output, history, variable=PRESELECT
  *elementoutput, directions=NO
  *output, field
  *output, history, variable=PRESELECT
  *elementoutput, directions=NO
  *output, field
  *output, history, variable=PRESELECT
  *elementoutput, directions=NO
  *Step, name=Step-1, nlgeom=YES
  *output, field
  *output, history, variable=PRESELECT
  *Step, name=Step-1, nlgeom=YES
  *Step, name=Step-1, nlgeom=YES
  *static
  *boundary
  *output, field
  *nodeoutput
  *elementoutput, directions=NO
  *elprint, position=CENTROIDAL

 ***WARNING: OUTPUT REQUEST DG IS ONLY AVAILABLE FOR *HYPERELASTIC/FOAM AND 
             *USER MATERIAL.
  *output, history, variable=PRESELECT
  *endstep

 ***WARNING: OUTPUT REQUEST V IS NOT AVAILABLE FOR THIS TYPE OF ANALYSIS

 ***WARNING: OUTPUT REQUEST VF IS NOT AVAILABLE FOR THIS TYPE OF ANALYSIS

 ***WARNING: OUTPUT REQUEST VT IS NOT AVAILABLE FOR THIS TYPE OF ANALYSIS

 ***WARNING: THE REQUEST FOR MISES OUTPUT WILL BE REPLACED BY A REQUEST FOR S 
             OUTPUT

 ***WARNING: OUTPUT VARIABLE ALPHAN HAS NO COMPONENTS IN THIS ANALYSIS FOR 
             ELEMENT TYPE C3D4

 ***WARNING: OUTPUT REQUEST CS11 IS NOT AVAILABLE FOR ELEMENT TYPE C3D4

 ***WARNING: OUTPUT REQUEST CTSHR IS NOT AVAILABLE FOR ELEMENT TYPE C3D4

 ***WARNING: OUTPUT REQUEST SEPE IS NOT AVAILABLE FOR ELEMENT TYPE C3D4

 ***WARNING: OUTPUT REQUEST SPE IS NOT AVAILABLE FOR ELEMENT TYPE C3D4

 ***WARNING: OUTPUT REQUEST TRIAX IS NOT AVAILABLE FOR THE MATERIAL FOR ELEMENT 
             TYPE C3D4

 ***WARNING: OUTPUT REQUEST TSHR IS NOT AVAILABLE FOR ELEMENT TYPE C3D4

 ***WARNING: OUTPUT REQUEST VE IS NOT AVAILABLE FOR THE MATERIAL FOR ELEMENT 
             TYPE C3D4

 ***WARNING: OUTPUT REQUEST VEEQ IS NOT AVAILABLE FOR THE MATERIAL FOR ELEMENT 
             TYPE C3D4

 ***WARNING: OUTPUT REQUEST VS IS NOT AVAILABLE FOR THE MATERIAL FOR ELEMENT 
             TYPE C3D4

 ***WARNING: OUTPUT REQUEST ESF1 IS NOT AVAILABLE FOR ELEMENT TYPE C3D4

 ***WARNING: OUTPUT REQUEST SALPHA IS NOT AVAILABLE FOR ELEMENT TYPE C3D4

 ***WARNING: OUTPUT REQUEST SE IS NOT AVAILABLE FOR ELEMENT TYPE C3D4

 ***WARNING: OUTPUT REQUEST SEE IS NOT AVAILABLE FOR ELEMENT TYPE C3D4

 ***WARNING: OUTPUT REQUEST SEP IS NOT AVAILABLE FOR ELEMENT TYPE C3D4

 ***WARNING: OUTPUT REQUEST SF IS NOT AVAILABLE FOR ELEMENT TYPE C3D4

 ***WARNING: OUTPUT REQUEST SSAVG IS NOT AVAILABLE FOR ELEMENT TYPE C3D4

 ***WARNING: OUTPUT REQUEST NFORCSO IS NOT AVAILABLE FOR ELEMENT TYPE C3D4
  *Step, name=Step-1, nlgeom=YES
  *static
  *boundary
  *endstep

 ***WARNING: USER SUBROUTINE UMAT WILL BE USED WITH THE STAVEV ARRAY 
             DIMENSIONED TO ZERO SINCE THE *DEPVAR OPTION IS NOT USED WITH THIS 
             MATERIAL. CONSEQUENTLY, DEFINING STATEV ENTRIES IN SUBROUTINE UMAT 
             WILL CAUSE CODE EXECUTION ERRORS.


                              E L E M E N T,   N O D E,   A N D   S U R F A C E   M A P S


**NOTE: This section may not include complete information about
        members of sets and surfaces. Use *PREPRINT, MODEL=YES 
        in order to get the set and surface members printed    
        under the following sections:                          
            - E L E M E N T   S E T S                          
            - N O D E   S E T S                                
            - S U R F A C E   D E F I N I T I O N S .          


Assembly name: ASSEMBLY
Number of instances: 1

ASSEMBLY LEVEL
  node sets:
    SET-BC:
      instance name: PART-1-1
      number of nodes: 329
      nodes: 
        1 2 3 4 5 6 7 8 9 10 11 12 13 14 15 16 17 18 19 20 21 22 23 24
        25 26 27 28 29 30 31 32 33 34 35 36 37 38 39 40 41 42 43 44 45
        46 47 48 49 50 51 52 53 54 55 56 57 58 59 60 61 62 63 64 65 66
        67 68 69 70 71 72 73 74 75 76 77 78 79 80 81 82 83 84 85 86 87
        88 89 90 91 92 93 94 95 96 97 98 99 100 101 102 103 104 105 106
        107 108 109 110 111 112 113 114 115 116 117 118 119 120 121 122
        123 124 125 126 127 128 129 130 131 132 133 134 135 136 137 138
        139 140 141 142 143 144 145 146 147 148 149 150 151 152 153 154
        155 156 157 158 159 160 161 162 163 164 165 166 167 168 169 170
        171 172 173 174 175 176 177 178 179 180 181 182 183 184 185 186
        187 188 189 190 191 192 193 194 195 196 197 198 199 200 201 202
        203 204 205 206 207 208 209 210 211 212 213 214 215 216 217 218
        219 220 221 222 223 224 225 226 227 228 229 230 231 232 233 234
        235 236 237 238 239 240 241 242 243 244 245 246 247 248 249 250
        251 252 253 254 255 256 257 258 259 260 261 262 263 264 265 266
        267 268 269 270 271 272 273 274 275 276 277 278 279 280 281 282
        283 284 285 286 287 288 289 290 291 292 293 294 295 296 297 298
        299 300 301 302 303 304 305 306 307 308 309 310 311 312 313 314
        315 316 317 318 319 320 321 322 323 324 325 326 327 328 329

  element sets:
    SET-BC:
      instance name: PART-1-1
      number of elements: 654
      elements: 
        13 21 30 51 54 80 101 121 145 177 244 289 293 314 326 339 348
        360 392 399 417 427 458 488 585 586 602 607 667 674 696 757 769
        784 803 815 824 886 931 933 961 1016 1035 1087 1118 1173 1174
        1188 1291 1337 1365 1368 1375 1423 1425 1496 1500 1514 1523 1538
        1610 1614 1621 1622 1623 1629 1630 1631 1632 1634 1640 1643 1647
        1648 1654 1658 1659 1660 1662 1663 1676 1681 1682 1684 1688 1693
        1694 1695 1697 1702 1703 1708 1714 1715 1716 1718 1719 1720 1724
        1725 1728 1729 1732 1733 1736 1739 1741 1742 1743 1744 1746 1748
        1752 1753 1760 1761 1762 1763 1768 1772 1774 1775 1778 1782 1783
        1784 1785 1791 1795 1796 1797 1800 1801 1813 1814 1819 1820 1823
        1827 1828 1829 1831 1832 1833 1835 1839 1841 1846 1847 1848 1851
        1852 1854 1856 1857 1858 1862 1864 1866 1868 1873 1875 1876 1877
        1878 1882 1886 1888 1890 1892 1893 1900 1903 1908 1911 1912 1913
        1915 1917 1918 1929 1931 1932 1937 1939 1943 1945 1953 1954 1955
        1956 1957 1959 1960 1964 1967 1968 1969 1973 1975 1981 1982 1983
        1984 1985 1986 1989 2006 2012 2014 2019 2026 2028 2034 2036 2041
        2047 2048 2052 2053 2055 2056 2057 2062 2069 2070 2071 2073 2079
        2083 2085 2086 2091 2092 2095 2096 2098 2099 2105 2108 2109 2111
        2113 2114 2116 2117 2126 2129 2143 2144 2147 2160 2165 2170 2173
        2179 2180 2182 2183 2184 2188 2189 2190 2192 2194 2198 2200 2201
        2204 2207 2208 2210 2212 2214 2218 2219 2222 2223 2224 2229 2231
        2236 2244 2246 2252 2257 2260 2264 2270 2272 2277 2280 2281 2282
        2284 2289 2294 2295 2300 2303 2310 2315 2317 2327 2337 2338 2347
        2360 2361 2373 2375 2380 2384 2388 2391 2396 2397 2405 2406 2408
        2409 2410 2412 2413 2417 2423 2424 2427 2428 2430 2450 2451 2459
        2461 2462 2463 2466 2487 2489 2493 2503 2504 2505 2512 2519 2529
        2536 2538 2539 2541 2546 2547 2552 2557 2560 2561 2566 2567 2573
        2574 2575 2577 2585 2591 2595 2597 2599 2602 2607 2614 2617 2619
        2620 2629 2630 2633 2637 2643 2644 2652 2655 2658 2659 2662 2663
        2665 2666 2667 2668 2671 2679 2684 2686 2688 2695 2696 2698 2700
        2702 2711 2713 2723 2725 2726 2728 2739 2741 2748 2749 2757 2758
        2760 2765 2766 2772 2776 2777 2778 2782 2784 2787 2799 2800 2801
        2803 2808 2810 2813 2814 2816 2817 2820 2826 2830 2832 2835 2837
        2845 2846 2848 2849 2853 2862 2866 2869 2881 2884 2885 2887 2888
        2890 2913 2915 2922 2925 2932 2934 2935 2938 2940 2943 2944 2945
        2947 2955 2961 2964 2965 2976 2980 2983 2984 2985 2986 2987 2988
        2989 2996 2999 3000 3001 3004 3005 3006 3009 3012 3016 3021 3024
        3025 3033 3041 3046 3048 3052 3056 3057 3062 3063 3067 3075 3077
        3083 3091 3094 3096 3099 3102 3107 3114 3116 3118 3124 3127 3129
        3137 3142 3144 3146 3148 3153 3154 3161 3163 3164 3166 3172 3174
        3178 3179 3182 3183 3187 3188 3189 3192 3195 3201 3208 3218 3224
        3229 3232 3239 3240 3242 3245 3247 3248 3252 3257 3264 3266 3275
        3277 3281 3284 3288 3292 3293 3300 3301 3303 3306 3307 3311 3313
        3316 3320 3322 3323 3324 3327 3333 3334 3335 3339 3342 3346 3349
        3350 3351 3358 3360 3361 3368 3370 3375 3387 3388 3389 3390 3391
        3392 3399 3400 3404 3405 3407 3409 3415 3419 3420 3423 3425 3431
        3433 3435 3474 3475 3478 3479 3482 3486 3489 3492 3493 3495 3497
        3506 3513 3515 3522 3529 3532 3539 3540 3541 3547 3548 3553 3558
        3559 3560 3562 3563 3565 3568 3570 3571 3572 3574 3575 3585 3587
        3589 3590 3595 3599 3602 3603 3605 3607 3620

  Surfaces:

INSTANCE LEVEL
  node sets:
    Instance name: PART-1-1

  element sets:
    Instance name: PART-1-1

  Surfaces:
    Instance name: PART-1-1
      surface name: SURF-1
      type: element based
        face id = S4
        number of elements: 38
        elements:
          13 458 607 803 815 1087 1337 1368 1496 1514 1523 1622 1629
          1662 1681 1774 1800 1827 1835 1841 1957 1968 2026 2144 2347
          2360 2361 2463 2529 2619 2652 2665 2702 2723 2739 3114 3288
          3351
        face id = S3
        number of elements: 583
        elements:
          21 30 51 54 80 101 121 145 177 244 289 293 314 326 348 360 399
          417 427 488 585 586 602 667 674 696 757 769 824 886 931 961
          1016 1035 1118 1173 1174 1188 1291 1365 1425 1500 1610 1614
          1621 1623 1630 1631 1632 1634 1640 1643 1647 1648 1654 1658
          1659 1660 1676 1682 1684 1688 1693 1694 1695 1697 1702 1703
          1708 1714 1715 1716 1718 1719 1720 1724 1725 1728 1729 1732
          1733 1736 1739 1741 1742 1743 1744 1746 1748 1752 1753 1760
          1761 1763 1768 1772 1775 1778 1782 1783 1784 1785 1791 1795
          1796 1797 1801 1813 1814 1819 1820 1823 1828 1829 1831 1832
          1833 1839 1846 1847 1848 1851 1852 1854 1856 1857 1858 1862
          1864 1866 1868 1873 1875 1876 1877 1878 1886 1888 1890 1892
          1893 1900 1903 1908 1911 1912 1913 1915 1917 1918 1929 1931
          1932 1937 1939 1943 1945 1953 1954 1955 1956 1959 1960 1964
          1967 1969 1973 1975 1981 1982 1983 1984 1985 1986 1989 2006
          2012 2014 2019 2028 2034 2036 2041 2047 2048 2052 2053 2055
          2056 2057 2062 2069 2070 2071 2073 2079 2083 2085 2086 2091
          2092 2095 2096 2098 2099 2105 2108 2111 2113 2114 2116 2117
          2126 2129 2143 2147 2160 2165 2170 2173 2179 2180 2182 2183
          2184 2188 2189 2190 2194 2198 2200 2201 2204 2208 2210 2212
          2214 2218 2219 2222 2223 2224 2229 2231 2236 2244 2246 2252
          2257 2260 2264 2270 2272 2277 2280 2281 2282 2284 2289 2294
          2295 2300 2310 2315 2317 2327 2337 2338 2375 2380 2384 2388
          2391 2396 2397 2405 2406 2408 2409 2410 2412 2413 2417 2423
          2424 2428 2430 2450 2451 2461 2462 2466 2487 2489 2493 2503
          2504 2505 2512 2519 2538 2541 2546 2547 2552 2557 2560 2561
          2566 2567 2573 2574 2575 2577 2585 2591 2595 2597 2599 2602
          2607 2614 2617 2620 2629 2630 2633 2637 2643 2644 2655 2658
          2659 2662 2663 2667 2668 2671 2679 2684 2688 2695 2696 2698
          2700 2711 2713 2726 2728 2741 2748 2749 2757 2758 2760 2765
          2766 2776 2777 2778 2782 2784 2787 2799 2800 2801 2803 2808
          2810 2813 2814 2816 2817 2820 2826 2832 2835 2837 2845 2848
          2849 2853 2862 2866 2869 2881 2884 2885 2887 2888 2890 2913
          2915 2922 2925 2932 2934 2935 2938 2940 2943 2944 2945 2947
          2955 2961 2964 2965 2976 2980 2983 2984 2985 2986 2987 2988
          2989 2996 2999 3000 3001 3004 3005 3009 3012 3021 3024 3025
          3033 3041 3046 3048 3052 3056 3057 3062 3063 3067 3075 3077
          3083 3091 3094 3096 3099 3102 3107 3116 3118 3124 3127 3129
          3137 3142 3144 3146 3148 3153 3154 3161 3163 3164 3166 3172
          3174 3178 3179 3182 3183 3187 3188 3189 3192 3195 3201 3208
          3218 3224 3229 3232 3239 3240 3242 3245 3247 3248 3252 3257
          3264 3266 3275 3277 3281 3284 3292 3293 3301 3303 3307 3311
          3313 3316 3320 3322 3323 3324 3327 3333 3334 3335 3339 3342
          3346 3349 3358 3360 3361 3368 3370 3375 3387 3388 3389 3391
          3392 3399 3400 3404 3405 3407 3409 3415 3419 3420 3423 3425
          3431 3433 3435 3474 3475 3478 3479 3482 3486 3489 3492 3493
          3495 3497 3506 3513 3515 3522 3529 3532 3539 3540 3541 3547
          3548 3553 3558 3560 3562 3563 3565 3568 3570 3571 3572 3574
          3575 3585 3587 3589 3590 3595 3602 3603 3605 3607 3620
        face id = S2
        number of elements: 18
        elements:
          392 1663 1762 1882 2192 2207 2373 2427 2536 2666 2686 2830
          2846 3016 3306 3350 3390 3559
        face id = S1
        number of elements: 15
        elements:
          339 784 933 1375 1423 1538 2109 2303 2459 2539 2725 2772 3006
          3300 3599

GLOBAL TO LOCAL NODE AND ELEMENT MAPS
  Global     Local      
  node       node       
  number     number     
                        Instance name                                   
   1          1         PART-1-1                                        
   2          2         PART-1-1                                        
   3          3         PART-1-1                                        
   4          4         PART-1-1                                        
   5          5         PART-1-1                                        
   6          6         PART-1-1                                        
   7          7         PART-1-1                                        
   8          8         PART-1-1                                        
   9          9         PART-1-1                                        
   10         10        PART-1-1                                        
   11         11        PART-1-1                                        
   12         12        PART-1-1                                        
   13         13        PART-1-1                                        
   14         14        PART-1-1                                        
   15         15        PART-1-1                                        
   16         16        PART-1-1                                        
   17         17        PART-1-1                                        
   18         18        PART-1-1                                        
   19         19        PART-1-1                                        
   20         20        PART-1-1                                        
   21         21        PART-1-1                                        
   22         22        PART-1-1                                        
   23         23        PART-1-1                                        
   24         24        PART-1-1                                        
   25         25        PART-1-1                                        
   26         26        PART-1-1                                        
   27         27        PART-1-1                                        
   28         28        PART-1-1                                        
   29         29        PART-1-1                                        
   30         30        PART-1-1                                        
   31         31        PART-1-1                                        
   32         32        PART-1-1                                        
   33         33        PART-1-1                                        
   34         34        PART-1-1                                        
   35         35        PART-1-1                                        
   36         36        PART-1-1                                        
   37         37        PART-1-1                                        
   38         38        PART-1-1                                        
   39         39        PART-1-1                                        
   40         40        PART-1-1                                        
   41         41        PART-1-1                                        
   42         42        PART-1-1                                        
   43         43        PART-1-1                                        
   44         44        PART-1-1                                        
   45         45        PART-1-1                                        
   46         46        PART-1-1                                        
   47         47        PART-1-1                                        
   48         48        PART-1-1                                        
   49         49        PART-1-1                                        
   50         50        PART-1-1                                        
   51         51        PART-1-1                                        
   52         52        PART-1-1                                        
   53         53        PART-1-1                                        
   54         54        PART-1-1                                        
   55         55        PART-1-1                                        
   56         56        PART-1-1                                        
   57         57        PART-1-1                                        
   58         58        PART-1-1                                        
   59         59        PART-1-1                                        
   60         60        PART-1-1                                        
   61         61        PART-1-1                                        
   62         62        PART-1-1                                        
   63         63        PART-1-1                                        
   64         64        PART-1-1                                        
   65         65        PART-1-1                                        
   66         66        PART-1-1                                        
   67         67        PART-1-1                                        
   68         68        PART-1-1                                        
   69         69        PART-1-1                                        
   70         70        PART-1-1                                        
   71         71        PART-1-1                                        
   72         72        PART-1-1                                        
   73         73        PART-1-1                                        
   74         74        PART-1-1                                        
   75         75        PART-1-1                                        
   76         76        PART-1-1                                        
   77         77        PART-1-1                                        
   78         78        PART-1-1                                        
   79         79        PART-1-1                                        
   80         80        PART-1-1                                        
   81         81        PART-1-1                                        
   82         82        PART-1-1                                        
   83         83        PART-1-1                                        
   84         84        PART-1-1                                        
   85         85        PART-1-1                                        
   86         86        PART-1-1                                        
   87         87        PART-1-1                                        
   88         88        PART-1-1                                        
   89         89        PART-1-1                                        
   90         90        PART-1-1                                        
   91         91        PART-1-1                                        
   92         92        PART-1-1                                        
   93         93        PART-1-1                                        
   94         94        PART-1-1                                        
   95         95        PART-1-1                                        
   96         96        PART-1-1                                        
   97         97        PART-1-1                                        
   98         98        PART-1-1                                        
   99         99        PART-1-1                                        
   100        100       PART-1-1                                        
   101        101       PART-1-1                                        
   102        102       PART-1-1                                        
   103        103       PART-1-1                                        
   104        104       PART-1-1                                        
   105        105       PART-1-1                                        
   106        106       PART-1-1                                        
   107        107       PART-1-1                                        
   108        108       PART-1-1                                        
   109        109       PART-1-1                                        
   110        110       PART-1-1                                        
   111        111       PART-1-1                                        
   112        112       PART-1-1                                        
   113        113       PART-1-1                                        
   114        114       PART-1-1                                        
   115        115       PART-1-1                                        
   116        116       PART-1-1                                        
   117        117       PART-1-1                                        
   118        118       PART-1-1                                        
   119        119       PART-1-1                                        
   120        120       PART-1-1                                        
   121        121       PART-1-1                                        
   122        122       PART-1-1                                        
   123        123       PART-1-1                                        
   124        124       PART-1-1                                        
   125        125       PART-1-1                                        
   126        126       PART-1-1                                        
   127        127       PART-1-1                                        
   128        128       PART-1-1                                        
   129        129       PART-1-1                                        
   130        130       PART-1-1                                        
   131        131       PART-1-1                                        
   132        132       PART-1-1                                        
   133        133       PART-1-1                                        
   134        134       PART-1-1                                        
   135        135       PART-1-1                                        
   136        136       PART-1-1                                        
   137        137       PART-1-1                                        
   138        138       PART-1-1                                        
   139        139       PART-1-1                                        
   140        140       PART-1-1                                        
   141        141       PART-1-1                                        
   142        142       PART-1-1                                        
   143        143       PART-1-1                                        
   144        144       PART-1-1                                        
   145        145       PART-1-1                                        
   146        146       PART-1-1                                        
   147        147       PART-1-1                                        
   148        148       PART-1-1                                        
   149        149       PART-1-1                                        
   150        150       PART-1-1                                        
   151        151       PART-1-1                                        
   152        152       PART-1-1                                        
   153        153       PART-1-1                                        
   154        154       PART-1-1                                        
   155        155       PART-1-1                                        
   156        156       PART-1-1                                        
   157        157       PART-1-1                                        
   158        158       PART-1-1                                        
   159        159       PART-1-1                                        
   160        160       PART-1-1                                        
   161        161       PART-1-1                                        
   162        162       PART-1-1                                        
   163        163       PART-1-1                                        
   164        164       PART-1-1                                        
   165        165       PART-1-1                                        
   166        166       PART-1-1                                        
   167        167       PART-1-1                                        
   168        168       PART-1-1                                        
   169        169       PART-1-1                                        
   170        170       PART-1-1                                        
   171        171       PART-1-1                                        
   172        172       PART-1-1                                        
   173        173       PART-1-1                                        
   174        174       PART-1-1                                        
   175        175       PART-1-1                                        
   176        176       PART-1-1                                        
   177        177       PART-1-1                                        
   178        178       PART-1-1                                        
   179        179       PART-1-1                                        
   180        180       PART-1-1                                        
   181        181       PART-1-1                                        
   182        182       PART-1-1                                        
   183        183       PART-1-1                                        
   184        184       PART-1-1                                        
   185        185       PART-1-1                                        
   186        186       PART-1-1                                        
   187        187       PART-1-1                                        
   188        188       PART-1-1                                        
   189        189       PART-1-1                                        
   190        190       PART-1-1                                        
   191        191       PART-1-1                                        
   192        192       PART-1-1                                        
   193        193       PART-1-1                                        
   194        194       PART-1-1                                        
   195        195       PART-1-1                                        
   196        196       PART-1-1                                        
   197        197       PART-1-1                                        
   198        198       PART-1-1                                        
   199        199       PART-1-1                                        
   200        200       PART-1-1                                        
   201        201       PART-1-1                                        
   202        202       PART-1-1                                        
   203        203       PART-1-1                                        
   204        204       PART-1-1                                        
   205        205       PART-1-1                                        
   206        206       PART-1-1                                        
   207        207       PART-1-1                                        
   208        208       PART-1-1                                        
   209        209       PART-1-1                                        
   210        210       PART-1-1                                        
   211        211       PART-1-1                                        
   212        212       PART-1-1                                        
   213        213       PART-1-1                                        
   214        214       PART-1-1                                        
   215        215       PART-1-1                                        
   216        216       PART-1-1                                        
   217        217       PART-1-1                                        
   218        218       PART-1-1                                        
   219        219       PART-1-1                                        
   220        220       PART-1-1                                        
   221        221       PART-1-1                                        
   222        222       PART-1-1                                        
   223        223       PART-1-1                                        
   224        224       PART-1-1                                        
   225        225       PART-1-1                                        
   226        226       PART-1-1                                        
   227        227       PART-1-1                                        
   228        228       PART-1-1                                        
   229        229       PART-1-1                                        
   230        230       PART-1-1                                        
   231        231       PART-1-1                                        
   232        232       PART-1-1                                        
   233        233       PART-1-1                                        
   234        234       PART-1-1                                        
   235        235       PART-1-1                                        
   236        236       PART-1-1                                        
   237        237       PART-1-1                                        
   238        238       PART-1-1                                        
   239        239       PART-1-1                                        
   240        240       PART-1-1                                        
   241        241       PART-1-1                                        
   242        242       PART-1-1                                        
   243        243       PART-1-1                                        
   244        244       PART-1-1                                        
   245        245       PART-1-1                                        
   246        246       PART-1-1                                        
   247        247       PART-1-1                                        
   248        248       PART-1-1                                        
   249        249       PART-1-1                                        
   250        250       PART-1-1                                        
   251        251       PART-1-1                                        
   252        252       PART-1-1                                        
   253        253       PART-1-1                                        
   254        254       PART-1-1                                        
   255        255       PART-1-1                                        
   256        256       PART-1-1                                        
   257        257       PART-1-1                                        
   258        258       PART-1-1                                        
   259        259       PART-1-1                                        
   260        260       PART-1-1                                        
   261        261       PART-1-1                                        
   262        262       PART-1-1                                        
   263        263       PART-1-1                                        
   264        264       PART-1-1                                        
   265        265       PART-1-1                                        
   266        266       PART-1-1                                        
   267        267       PART-1-1                                        
   268        268       PART-1-1                                        
   269        269       PART-1-1                                        
   270        270       PART-1-1                                        
   271        271       PART-1-1                                        
   272        272       PART-1-1                                        
   273        273       PART-1-1                                        
   274        274       PART-1-1                                        
   275        275       PART-1-1                                        
   276        276       PART-1-1                                        
   277        277       PART-1-1                                        
   278        278       PART-1-1                                        
   279        279       PART-1-1                                        
   280        280       PART-1-1                                        
   281        281       PART-1-1                                        
   282        282       PART-1-1                                        
   283        283       PART-1-1                                        
   284        284       PART-1-1                                        
   285        285       PART-1-1                                        
   286        286       PART-1-1                                        
   287        287       PART-1-1                                        
   288        288       PART-1-1                                        
   289        289       PART-1-1                                        
   290        290       PART-1-1                                        
   291        291       PART-1-1                                        
   292        292       PART-1-1                                        
   293        293       PART-1-1                                        
   294        294       PART-1-1                                        
   295        295       PART-1-1                                        
   296        296       PART-1-1                                        
   297        297       PART-1-1                                        
   298        298       PART-1-1                                        
   299        299       PART-1-1                                        
   300        300       PART-1-1                                        
   301        301       PART-1-1                                        
   302        302       PART-1-1                                        
   303        303       PART-1-1                                        
   304        304       PART-1-1                                        
   305        305       PART-1-1                                        
   306        306       PART-1-1                                        
   307        307       PART-1-1                                        
   308        308       PART-1-1                                        
   309        309       PART-1-1                                        
   310        310       PART-1-1                                        
   311        311       PART-1-1                                        
   312        312       PART-1-1                                        
   313        313       PART-1-1                                        
   314        314       PART-1-1                                        
   315        315       PART-1-1                                        
   316        316       PART-1-1                                        
   317        317       PART-1-1                                        
   318        318       PART-1-1                                        
   319        319       PART-1-1                                        
   320        320       PART-1-1                                        
   321        321       PART-1-1                                        
   322        322       PART-1-1                                        
   323        323       PART-1-1                                        
   324        324       PART-1-1                                        
   325        325       PART-1-1                                        
   326        326       PART-1-1                                        
   327        327       PART-1-1                                        
   328        328       PART-1-1                                        
   329        329       PART-1-1                                        
   330        330       PART-1-1                                        
   331        331       PART-1-1                                        
   332        332       PART-1-1                                        
   333        333       PART-1-1                                        
   334        334       PART-1-1                                        
   335        335       PART-1-1                                        
   336        336       PART-1-1                                        
   337        337       PART-1-1                                        
   338        338       PART-1-1                                        
   339        339       PART-1-1                                        
   340        340       PART-1-1                                        
   341        341       PART-1-1                                        
   342        342       PART-1-1                                        
   343        343       PART-1-1                                        
   344        344       PART-1-1                                        
   345        345       PART-1-1                                        
   346        346       PART-1-1                                        
   347        347       PART-1-1                                        
   348        348       PART-1-1                                        
   349        349       PART-1-1                                        
   350        350       PART-1-1                                        
   351        351       PART-1-1                                        
   352        352       PART-1-1                                        
   353        353       PART-1-1                                        
   354        354       PART-1-1                                        
   355        355       PART-1-1                                        
   356        356       PART-1-1                                        
   357        357       PART-1-1                                        
   358        358       PART-1-1                                        
   359        359       PART-1-1                                        
   360        360       PART-1-1                                        
   361        361       PART-1-1                                        
   362        362       PART-1-1                                        
   363        363       PART-1-1                                        
   364        364       PART-1-1                                        
   365        365       PART-1-1                                        
   366        366       PART-1-1                                        
   367        367       PART-1-1                                        
   368        368       PART-1-1                                        
   369        369       PART-1-1                                        
   370        370       PART-1-1                                        
   371        371       PART-1-1                                        
   372        372       PART-1-1                                        
   373        373       PART-1-1                                        
   374        374       PART-1-1                                        
   375        375       PART-1-1                                        
   376        376       PART-1-1                                        
   377        377       PART-1-1                                        
   378        378       PART-1-1                                        
   379        379       PART-1-1                                        
   380        380       PART-1-1                                        
   381        381       PART-1-1                                        
   382        382       PART-1-1                                        
   383        383       PART-1-1                                        
   384        384       PART-1-1                                        
   385        385       PART-1-1                                        
   386        386       PART-1-1                                        
   387        387       PART-1-1                                        
   388        388       PART-1-1                                        
   389        389       PART-1-1                                        
   390        390       PART-1-1                                        
   391        391       PART-1-1                                        
   392        392       PART-1-1                                        
   393        393       PART-1-1                                        
   394        394       PART-1-1                                        
   395        395       PART-1-1                                        
   396        396       PART-1-1                                        
   397        397       PART-1-1                                        
   398        398       PART-1-1                                        
   399        399       PART-1-1                                        
   400        400       PART-1-1                                        
   401        401       PART-1-1                                        
   402        402       PART-1-1                                        
   403        403       PART-1-1                                        
   404        404       PART-1-1                                        
   405        405       PART-1-1                                        
   406        406       PART-1-1                                        
   407        407       PART-1-1                                        
   408        408       PART-1-1                                        
   409        409       PART-1-1                                        
   410        410       PART-1-1                                        
   411        411       PART-1-1                                        
   412        412       PART-1-1                                        
   413        413       PART-1-1                                        
   414        414       PART-1-1                                        
   415        415       PART-1-1                                        
   416        416       PART-1-1                                        
   417        417       PART-1-1                                        
   418        418       PART-1-1                                        
   419        419       PART-1-1                                        
   420        420       PART-1-1                                        
   421        421       PART-1-1                                        
   422        422       PART-1-1                                        
   423        423       PART-1-1                                        
   424        424       PART-1-1                                        
   425        425       PART-1-1                                        
   426        426       PART-1-1                                        
   427        427       PART-1-1                                        
   428        428       PART-1-1                                        
   429        429       PART-1-1                                        
   430        430       PART-1-1                                        
   431        431       PART-1-1                                        
   432        432       PART-1-1                                        
   433        433       PART-1-1                                        
   434        434       PART-1-1                                        
   435        435       PART-1-1                                        
   436        436       PART-1-1                                        
   437        437       PART-1-1                                        
   438        438       PART-1-1                                        
   439        439       PART-1-1                                        
   440        440       PART-1-1                                        
   441        441       PART-1-1                                        
   442        442       PART-1-1                                        
   443        443       PART-1-1                                        
   444        444       PART-1-1                                        
   445        445       PART-1-1                                        
   446        446       PART-1-1                                        
   447        447       PART-1-1                                        
   448        448       PART-1-1                                        
   449        449       PART-1-1                                        
   450        450       PART-1-1                                        
   451        451       PART-1-1                                        
   452        452       PART-1-1                                        
   453        453       PART-1-1                                        
   454        454       PART-1-1                                        
   455        455       PART-1-1                                        
   456        456       PART-1-1                                        
   457        457       PART-1-1                                        
   458        458       PART-1-1                                        
   459        459       PART-1-1                                        
   460        460       PART-1-1                                        
   461        461       PART-1-1                                        
   462        462       PART-1-1                                        
   463        463       PART-1-1                                        
   464        464       PART-1-1                                        
   465        465       PART-1-1                                        
   466        466       PART-1-1                                        
   467        467       PART-1-1                                        
   468        468       PART-1-1                                        
   469        469       PART-1-1                                        
   470        470       PART-1-1                                        
   471        471       PART-1-1                                        
   472        472       PART-1-1                                        
   473        473       PART-1-1                                        
   474        474       PART-1-1                                        
   475        475       PART-1-1                                        
   476        476       PART-1-1                                        
   477        477       PART-1-1                                        
   478        478       PART-1-1                                        
   479        479       PART-1-1                                        
   480        480       PART-1-1                                        
   481        481       PART-1-1                                        
   482        482       PART-1-1                                        
   483        483       PART-1-1                                        
   484        484       PART-1-1                                        
   485        485       PART-1-1                                        
   486        486       PART-1-1                                        
   487        487       PART-1-1                                        
   488        488       PART-1-1                                        
   489        489       PART-1-1                                        
   490        490       PART-1-1                                        
   491        491       PART-1-1                                        
   492        492       PART-1-1                                        
   493        493       PART-1-1                                        
   494        494       PART-1-1                                        
   495        495       PART-1-1                                        
   496        496       PART-1-1                                        
   497        497       PART-1-1                                        
   498        498       PART-1-1                                        
   499        499       PART-1-1                                        
   500        500       PART-1-1                                        
   501        501       PART-1-1                                        
   502        502       PART-1-1                                        
   503        503       PART-1-1                                        
   504        504       PART-1-1                                        
   505        505       PART-1-1                                        
   506        506       PART-1-1                                        
   507        507       PART-1-1                                        
   508        508       PART-1-1                                        
   509        509       PART-1-1                                        
   510        510       PART-1-1                                        
   511        511       PART-1-1                                        
   512        512       PART-1-1                                        
   513        513       PART-1-1                                        
   514        514       PART-1-1                                        
   515        515       PART-1-1                                        
   516        516       PART-1-1                                        
   517        517       PART-1-1                                        
   518        518       PART-1-1                                        
   519        519       PART-1-1                                        
   520        520       PART-1-1                                        
   521        521       PART-1-1                                        
   522        522       PART-1-1                                        
   523        523       PART-1-1                                        
   524        524       PART-1-1                                        
   525        525       PART-1-1                                        
   526        526       PART-1-1                                        
   527        527       PART-1-1                                        
   528        528       PART-1-1                                        
   529        529       PART-1-1                                        
   530        530       PART-1-1                                        
   531        531       PART-1-1                                        
   532        532       PART-1-1                                        
   533        533       PART-1-1                                        
   534        534       PART-1-1                                        
   535        535       PART-1-1                                        
   536        536       PART-1-1                                        
   537        537       PART-1-1                                        
   538        538       PART-1-1                                        
   539        539       PART-1-1                                        
   540        540       PART-1-1                                        
   541        541       PART-1-1                                        
   542        542       PART-1-1                                        
   543        543       PART-1-1                                        
   544        544       PART-1-1                                        
   545        545       PART-1-1                                        
   546        546       PART-1-1                                        
   547        547       PART-1-1                                        
   548        548       PART-1-1                                        
   549        549       PART-1-1                                        
   550        550       PART-1-1                                        
   551        551       PART-1-1                                        
   552        552       PART-1-1                                        
   553        553       PART-1-1                                        
   554        554       PART-1-1                                        
   555        555       PART-1-1                                        
   556        556       PART-1-1                                        
   557        557       PART-1-1                                        
   558        558       PART-1-1                                        
   559        559       PART-1-1                                        
   560        560       PART-1-1                                        
   561        561       PART-1-1                                        
   562        562       PART-1-1                                        
   563        563       PART-1-1                                        
   564        564       PART-1-1                                        
   565        565       PART-1-1                                        
   566        566       PART-1-1                                        
   567        567       PART-1-1                                        
   568        568       PART-1-1                                        
   569        569       PART-1-1                                        
   570        570       PART-1-1                                        
   571        571       PART-1-1                                        
   572        572       PART-1-1                                        
   573        573       PART-1-1                                        
   574        574       PART-1-1                                        
   575        575       PART-1-1                                        
   576        576       PART-1-1                                        
   577        577       PART-1-1                                        
   578        578       PART-1-1                                        
   579        579       PART-1-1                                        
   580        580       PART-1-1                                        
   581        581       PART-1-1                                        
   582        582       PART-1-1                                        
   583        583       PART-1-1                                        
   584        584       PART-1-1                                        
   585        585       PART-1-1                                        
   586        586       PART-1-1                                        
   587        587       PART-1-1                                        
   588        588       PART-1-1                                        
   589        589       PART-1-1                                        
   590        590       PART-1-1                                        
   591        591       PART-1-1                                        
   592        592       PART-1-1                                        
   593        593       PART-1-1                                        
   594        594       PART-1-1                                        
   595        595       PART-1-1                                        
   596        596       PART-1-1                                        
   597        597       PART-1-1                                        
   598        598       PART-1-1                                        
   599        599       PART-1-1                                        
   600        600       PART-1-1                                        
   601        601       PART-1-1                                        
   602        602       PART-1-1                                        
   603        603       PART-1-1                                        
   604        604       PART-1-1                                        
   605        605       PART-1-1                                        
   606        606       PART-1-1                                        
   607        607       PART-1-1                                        
   608        608       PART-1-1                                        
   609        609       PART-1-1                                        
   610        610       PART-1-1                                        
   611        611       PART-1-1                                        
   612        612       PART-1-1                                        
   613        613       PART-1-1                                        
   614        614       PART-1-1                                        
   615        615       PART-1-1                                        
   616        616       PART-1-1                                        
   617        617       PART-1-1                                        
   618        618       PART-1-1                                        
   619        619       PART-1-1                                        
   620        620       PART-1-1                                        
   621        621       PART-1-1                                        
   622        622       PART-1-1                                        
   623        623       PART-1-1                                        
   624        624       PART-1-1                                        
   625        625       PART-1-1                                        
   626        626       PART-1-1                                        
   627        627       PART-1-1                                        
   628        628       PART-1-1                                        
   629        629       PART-1-1                                        
   630        630       PART-1-1                                        
   631        631       PART-1-1                                        
   632        632       PART-1-1                                        
   633        633       PART-1-1                                        
   634        634       PART-1-1                                        
   635        635       PART-1-1                                        
   636        636       PART-1-1                                        
   637        637       PART-1-1                                        
   638        638       PART-1-1                                        
   639        639       PART-1-1                                        
   640        640       PART-1-1                                        
   641        641       PART-1-1                                        
   642        642       PART-1-1                                        
   643        643       PART-1-1                                        
   644        644       PART-1-1                                        
   645        645       PART-1-1                                        
   646        646       PART-1-1                                        
   647        647       PART-1-1                                        
   648        648       PART-1-1                                        
   649        649       PART-1-1                                        
   650        650       PART-1-1                                        
   651        651       PART-1-1                                        
   652        652       PART-1-1                                        
   653        653       PART-1-1                                        
   654        654       PART-1-1                                        
   655        655       PART-1-1                                        
   656        656       PART-1-1                                        
   657        657       PART-1-1                                        
   658        658       PART-1-1                                        
   659        659       PART-1-1                                        
   660        660       PART-1-1                                        
   661        661       PART-1-1                                        
   662        662       PART-1-1                                        
   663        663       PART-1-1                                        
   664        664       PART-1-1                                        
   665        665       PART-1-1                                        
   666        666       PART-1-1                                        
   667        667       PART-1-1                                        
   668        668       PART-1-1                                        
   669        669       PART-1-1                                        
   670        670       PART-1-1                                        
   671        671       PART-1-1                                        
   672        672       PART-1-1                                        
   673        673       PART-1-1                                        
   674        674       PART-1-1                                        
   675        675       PART-1-1                                        
   676        676       PART-1-1                                        
   677        677       PART-1-1                                        
   678        678       PART-1-1                                        
   679        679       PART-1-1                                        
   680        680       PART-1-1                                        
   681        681       PART-1-1                                        
   682        682       PART-1-1                                        
   683        683       PART-1-1                                        
   684        684       PART-1-1                                        
   685        685       PART-1-1                                        
   686        686       PART-1-1                                        
   687        687       PART-1-1                                        
   688        688       PART-1-1                                        
   689        689       PART-1-1                                        
   690        690       PART-1-1                                        
   691        691       PART-1-1                                        
   692        692       PART-1-1                                        
   693        693       PART-1-1                                        
   694        694       PART-1-1                                        
   695        695       PART-1-1                                        
   696        696       PART-1-1                                        
   697        697       PART-1-1                                        
   698        698       PART-1-1                                        
   699        699       PART-1-1                                        
   700        700       PART-1-1                                        
   701        701       PART-1-1                                        
   702        702       PART-1-1                                        
   703        703       PART-1-1                                        
   704        704       PART-1-1                                        
   705        705       PART-1-1                                        
   706        706       PART-1-1                                        
   707        707       PART-1-1                                        
   708        708       PART-1-1                                        
   709        709       PART-1-1                                        
   710        710       PART-1-1                                        
   711        711       PART-1-1                                        
   712        712       PART-1-1                                        
   713        713       PART-1-1                                        
   714        714       PART-1-1                                        
   715        715       PART-1-1                                        
   716        716       PART-1-1                                        
   717        717       PART-1-1                                        
   718        718       PART-1-1                                        
   719        719       PART-1-1                                        
   720        720       PART-1-1                                        
   721        721       PART-1-1                                        
   722        722       PART-1-1                                        
   723        723       PART-1-1                                        
   724        724       PART-1-1                                        
   725        725       PART-1-1                                        
   726        726       PART-1-1                                        
   727        727       PART-1-1                                        
   728        728       PART-1-1                                        
   729        729       PART-1-1                                        
   730        730       PART-1-1                                        
   731        731       PART-1-1                                        
   732        732       PART-1-1                                        
   733        733       PART-1-1                                        
   734        734       PART-1-1                                        
   735        735       PART-1-1                                        
   736        736       PART-1-1                                        
   737        737       PART-1-1                                        
   738        738       PART-1-1                                        
   739        739       PART-1-1                                        
   740        740       PART-1-1                                        
   741        741       PART-1-1                                        
   742        742       PART-1-1                                        
   743        743       PART-1-1                                        
   744        744       PART-1-1                                        
   745        745       PART-1-1                                        
   746        746       PART-1-1                                        
   747        747       PART-1-1                                        
   748        748       PART-1-1                                        
   749        749       PART-1-1                                        
   750        750       PART-1-1                                        
   751        751       PART-1-1                                        
   752        752       PART-1-1                                        
   753        753       PART-1-1                                        
   754        754       PART-1-1                                        
   755        755       PART-1-1                                        
   756        756       PART-1-1                                        
   757        757       PART-1-1                                        
   758        758       PART-1-1                                        
   759        759       PART-1-1                                        
   760        760       PART-1-1                                        
   761        761       PART-1-1                                        
   762        762       PART-1-1                                        
   763        763       PART-1-1                                        
   764        764       PART-1-1                                        
   765        765       PART-1-1                                        
   766        766       PART-1-1                                        
   767        767       PART-1-1                                        
   768        768       PART-1-1                                        
   769        769       PART-1-1                                        
   770        770       PART-1-1                                        
   771        771       PART-1-1                                        
   772        772       PART-1-1                                        
   773        773       PART-1-1                                        
   774        774       PART-1-1                                        
   775        775       PART-1-1                                        
   776        776       PART-1-1                                        
   777        777       PART-1-1                                        
   778        778       PART-1-1                                        
   779        779       PART-1-1                                        
   780        780       PART-1-1                                        
   781        781       PART-1-1                                        
   782        782       PART-1-1                                        
   783        783       PART-1-1                                        
   784        784       PART-1-1                                        
   785        785       PART-1-1                                        
   786        786       PART-1-1                                        

  Global     Local      
  element    element    
  number     number     
                        Instance name                                   
   1          1         PART-1-1                                        
   2          2         PART-1-1                                        
   3          3         PART-1-1                                        
   4          4         PART-1-1                                        
   5          5         PART-1-1                                        
   6          6         PART-1-1                                        
   7          7         PART-1-1                                        
   8          8         PART-1-1                                        
   9          9         PART-1-1                                        
   10         10        PART-1-1                                        
   11         11        PART-1-1                                        
   12         12        PART-1-1                                        
   13         13        PART-1-1                                        
   14         14        PART-1-1                                        
   15         15        PART-1-1                                        
   16         16        PART-1-1                                        
   17         17        PART-1-1                                        
   18         18        PART-1-1                                        
   19         19        PART-1-1                                        
   20         20        PART-1-1                                        
   21         21        PART-1-1                                        
   22         22        PART-1-1                                        
   23         23        PART-1-1                                        
   24         24        PART-1-1                                        
   25         25        PART-1-1                                        
   26         26        PART-1-1                                        
   27         27        PART-1-1                                        
   28         28        PART-1-1                                        
   29         29        PART-1-1                                        
   30         30        PART-1-1                                        
   31         31        PART-1-1                                        
   32         32        PART-1-1                                        
   33         33        PART-1-1                                        
   34         34        PART-1-1                                        
   35         35        PART-1-1                                        
   36         36        PART-1-1                                        
   37         37        PART-1-1                                        
   38         38        PART-1-1                                        
   39         39        PART-1-1                                        
   40         40        PART-1-1                                        
   41         41        PART-1-1                                        
   42         42        PART-1-1                                        
   43         43        PART-1-1                                        
   44         44        PART-1-1                                        
   45         45        PART-1-1                                        
   46         46        PART-1-1                                        
   47         47        PART-1-1                                        
   48         48        PART-1-1                                        
   49         49        PART-1-1                                        
   50         50        PART-1-1                                        
   51         51        PART-1-1                                        
   52         52        PART-1-1                                        
   53         53        PART-1-1                                        
   54         54        PART-1-1                                        
   55         55        PART-1-1                                        
   56         56        PART-1-1                                        
   57         57        PART-1-1                                        
   58         58        PART-1-1                                        
   59         59        PART-1-1                                        
   60         60        PART-1-1                                        
   61         61        PART-1-1                                        
   62         62        PART-1-1                                        
   63         63        PART-1-1                                        
   64         64        PART-1-1                                        
   65         65        PART-1-1                                        
   66         66        PART-1-1                                        
   67         67        PART-1-1                                        
   68         68        PART-1-1                                        
   69         69        PART-1-1                                        
[...]
        3473        1.000       1.000       1.000      0.5000     -3.5916E-08 -5.4184E-08  3.7444E-08  1.0350E-07  1.9847E-08
        3474        1.000       1.000       1.000      0.5000     -2.0718E-08  1.0006E-07 -1.4122E-08 -6.8772E-09 -8.3381E-09
        3475        1.000       1.000       1.000      0.5000     -1.7948E-06  1.8874E-06  7.7389E-08 -3.9605E-08  1.0333E-06
        3476        1.000       1.000       1.000      0.5000      3.9945E-08  2.0190E-07  4.5588E-07 -1.8696E-06 -2.8122E-07
        3477        1.000       1.000       1.000      0.5000     -1.0611E-07 -2.0297E-07 -2.3434E-07 -3.1073E-07 -1.1507E-07
        3478        1.000       1.000       1.000      0.5000      5.8957E-06  7.1233E-07 -7.8507E-07  7.8279E-07  2.1373E-06
        3479        1.000       1.000       1.000      0.5000      1.4403E-06  9.3137E-07 -7.0263E-07  7.0059E-07  1.9476E-06
        3480        1.000       1.000       1.000      0.5000      4.1031E-07 -2.7616E-07  1.2873E-07  4.2337E-08  7.1795E-08
        3481        1.000       1.000       1.000      0.5000      3.6894E-08  1.5351E-07 -1.8769E-07  3.3216E-09  5.9957E-08
        3482        1.000       1.000       1.000      0.5000     -1.9290E-06 -6.1922E-07 -1.7119E-07  6.4604E-09 -2.4208E-08
        3483        1.000       1.000       1.000      0.5000     -4.8006E-06 -8.7961E-07  2.2141E-06  4.6134E-06 -1.4898E-06
        3484        1.000       1.000       1.000      0.5000     -1.1202E-06  1.3262E-07 -1.6763E-07  6.9775E-08  9.1416E-09
        3485        1.000       1.000       1.000      0.5000      1.8475E-08  4.6695E-09 -1.1955E-07 -4.1237E-08 -2.4969E-07
        3486        1.000       1.000       1.000      0.5000      1.7778E-07  1.6290E-08 -2.7412E-10  4.6868E-09  4.0253E-08
        3487        1.000       1.000       1.000      0.5000     -2.4368E-07  6.2697E-07 -6.8254E-07 -3.7584E-08  7.3451E-08
        3488        1.000       1.000       1.000      0.5000     -1.3661E-07  4.1896E-08  2.5818E-07 -1.4785E-09  1.0607E-08
        3489        1.000       1.000       1.000      0.5000      1.1768E-05  5.8947E-07  2.9107E-07 -5.6823E-07 -2.1471E-06
        3490        1.000       1.000       1.000      0.5000     -3.6306E-07  1.0418E-07  1.1083E-07  9.6272E-08 -1.0753E-07
        3491        1.000       1.000       1.000      0.5000      4.1566E-09  8.0006E-08 -1.8215E-07  1.9254E-08 -2.3472E-08
        3492        1.000       1.000       1.000      0.5000     -7.0991E-09  9.6183E-08 -1.9726E-08 -9.6059E-09 -5.3151E-09
        3493        1.000       1.000       1.000      0.5000     -1.1121E-07  1.6181E-08 -5.8341E-10  9.9748E-09  4.5201E-08
        3494        1.000       1.000       1.000      0.5000     -2.1796E-07 -7.6832E-08 -3.4502E-07  3.8543E-09 -8.9527E-08
        3495        1.000       1.000       1.000      0.5000     -5.9244E-06 -2.2646E-07  4.0184E-08  2.5914E-08  3.4151E-07
        3496        1.000       1.000       1.000      0.5000      9.2928E-08  1.9424E-07 -9.4778E-08  6.2056E-08  6.2766E-08
        3497        1.000       1.000       1.000      0.5000     -8.3358E-07 -3.9624E-07 -2.1759E-07  2.7360E-07 -1.0999E-06
        3498        1.000       1.000       1.000      0.5000      1.6485E-07  2.6162E-07  7.4656E-07  1.7725E-07  2.8165E-07
        3499        1.000       1.000       1.000      0.5000     -4.4461E-08  3.5873E-08 -1.0545E-07  5.3955E-08  1.2911E-07
        3500        1.000       1.000       1.000      0.5000      1.3588E-07  8.0691E-08  1.1846E-07  9.9625E-08 -1.5625E-07
        3501        1.000       1.000       1.000      0.5000      5.4001E-08  4.5821E-09  1.0187E-07 -6.5131E-08 -8.8739E-08
        3502        1.000       1.000       1.000      0.5000      8.2286E-06 -1.6316E-07 -1.6151E-06  7.9420E-07 -1.7690E-07
        3503        1.000       1.000       1.000      0.5000      4.2028E-08  1.4760E-07  4.6181E-08 -9.0405E-08 -1.0750E-07
        3504        1.000       1.000       1.000      0.5000     -1.1206E-07  8.5543E-08  5.6768E-08  6.0187E-08  1.9899E-07
        3505        1.000       1.000       1.000      0.5000      4.3765E-08  1.0506E-07 -4.9819E-08  7.3231E-08 -5.7135E-08
        3506        1.000       1.000       1.000      0.5000     -6.5562E-07  1.6551E-07  3.3510E-07  1.4385E-07  6.6836E-08
        3507        1.000       1.000       1.000      0.5000     -9.4237E-08 -8.4859E-08 -1.5380E-07  8.6279E-08  1.4558E-08
        3508        1.000       1.000       1.000      0.5000     -3.1539E-06  1.1442E-06 -2.5227E-06 -2.2059E-06 -2.1007E-07
        3509        1.000       1.000       1.000      0.5000      8.4779E-07  1.8955E-07  8.2285E-08 -1.8141E-07  2.0266E-07
        3510        1.000       1.000       1.000      0.5000      1.3305E-08 -2.3693E-08 -1.2625E-09 -9.4197E-09 -1.7760E-08
        3511        1.000       1.000       1.000      0.5000      1.1275E-06  8.1427E-07  1.0042E-06  4.6047E-07 -8.4647E-08
        3512        1.000       1.000       1.000      0.5000     -3.7486E-07  2.1481E-07  1.8179E-07  1.2507E-07  1.8280E-07
        3513        1.000       1.000       1.000      0.5000     -1.1975E-05  6.6028E-07 -7.5699E-07  7.5480E-07  2.1567E-06
        3514        1.000       1.000       1.000      0.5000      4.0638E-08 -7.0419E-08  8.9524E-08  1.4895E-07  1.5689E-07
        3515        1.000       1.000       1.000      0.5000     -9.2916E-06 -9.7665E-08 -1.4319E-07 -1.6738E-06 -2.9872E-06
        3516        1.000       1.000       1.000      0.5000      3.8472E-07 -1.3297E-07 -8.1727E-08 -1.5275E-07  9.5026E-08
        3517        1.000       1.000       1.000      0.5000     -1.9322E-07  1.8365E-08 -9.3838E-08  3.1108E-08 -2.0052E-07
        3518        1.000       1.000       1.000      0.5000     -1.7258E-06  1.2715E-06 -1.9300E-07  3.1287E-07  7.2148E-07
        3519        1.000       1.000       1.000      0.5000     -7.6778E-08 -1.5422E-08  2.1669E-09 -9.0669E-08  1.3803E-07
        3520        1.000       1.000       1.000      0.5000     -1.6429E-07 -1.0219E-07 -2.5571E-07 -3.3336E-08 -8.6794E-08
        3521        1.000       1.000       1.000      0.5000     -1.0862E-06  2.0077E-07 -9.4286E-08 -2.0781E-07 -1.4289E-08
        3522        1.000       1.000       1.000      0.5000     -1.2439E-05  3.4123E-07  3.2663E-07  7.5416E-07  2.3054E-06
        3523        1.000       1.000       1.000      0.5000     -2.5385E-06  4.1572E-07 -2.4507E-06  2.4460E-06  1.8765E-07
        3524        1.000       1.000       1.000      0.5000     -4.3181E-08 -1.2785E-08  6.5074E-10 -9.0025E-08  1.4715E-07
        3525        1.000       1.000       1.000      0.5000      2.0619E-08 -9.4132E-09 -5.2471E-07  2.6915E-07 -2.0843E-07
        3526        1.000       1.000       1.000      0.5000      1.3617E-06  2.1779E-07  3.8791E-08  1.4865E-07 -2.2734E-07
        3527        1.000       1.000       1.000      0.5000     -9.0988E-08 -2.7369E-07 -3.0991E-07 -1.4634E-07 -3.3929E-07
        3528        1.000       1.000       1.000      0.5000      2.1277E-06 -5.2485E-07  1.2570E-06 -7.7910E-07  2.4895E-07
        3529        1.000       1.000       1.000      0.5000     -1.8007E-06 -1.9737E-08  1.1865E-07  9.0937E-08  7.0704E-07
        3530        1.000       1.000       1.000      0.5000     -2.0368E-07  2.9433E-07 -2.4683E-07 -1.4844E-07 -9.4549E-08
        3531        1.000       1.000       1.000      0.5000     -2.2540E-06  3.4501E-08  1.6130E-07  7.6516E-07  1.6419E-06
        3532        1.000       1.000       1.000      0.5000      2.0599E-06 -5.3953E-08 -1.4773E-07 -1.7268E-06 -3.3103E-06
        3533        1.000       1.000       1.000      0.5000     -1.4139E-06  5.3332E-07 -1.9803E-06 -5.7893E-07  1.8649E-07
        3534        1.000       1.000       1.000      0.5000      2.2393E-06 -3.5428E-07  1.1887E-06 -5.5984E-07  7.5860E-07
        3535        1.000       1.000       1.000      0.5000     -2.8113E-07  1.6127E-07 -5.0443E-08  1.8749E-07  2.4529E-07
        3536        1.000       1.000       1.000      0.5000      7.7047E-07 -1.6718E-08 -5.0114E-07 -1.0165E-07 -8.4867E-08
        3537        1.000       1.000       1.000      0.5000      2.7605E-06 -9.7174E-07 -9.1365E-08  8.0758E-08  2.3079E-07
        3538        1.000       1.000       1.000      0.5000      6.7896E-07 -5.2542E-08  2.1084E-07 -8.5859E-08 -7.5772E-08
        3539        1.000       1.000       1.000      0.5000      1.0134E-06  1.7083E-06 -3.5756E-08  1.8299E-08  1.1447E-06
        3540        1.000       1.000       1.000      0.5000      5.1243E-06 -2.6424E-07 -9.7591E-08  1.2272E-07 -1.0665E-06
        3541        1.000       1.000       1.000      0.5000      2.4066E-06  1.4027E-06  1.0468E-07 -5.3571E-08  1.1945E-06
        3542        1.000       1.000       1.000      0.5000      7.5585E-07  1.9295E-06  3.5615E-07 -7.8653E-07 -1.6054E-07
        3543        1.000       1.000       1.000      0.5000      1.8668E-06  7.8818E-07 -2.1836E-06  6.7110E-07 -3.6639E-07
        3544        1.000       1.000       1.000      0.5000     -1.9386E-07  4.5000E-08  9.2505E-08 -1.7935E-07 -9.1179E-09
        3545        1.000       1.000       1.000      0.5000      5.5337E-08 -7.3576E-08 -1.8684E-07 -2.8658E-07 -9.2281E-08
        3546        1.000       1.000       1.000      0.5000      4.2645E-07 -1.4861E-07 -3.2009E-08 -2.5767E-07 -7.6490E-09
        3547        1.000       1.000       1.000      0.5000     -2.1220E-07  4.9879E-09  2.7849E-09  1.9354E-08 -5.4445E-09
        3548        1.000       1.000       1.000      0.5000      7.7225E-06  1.7596E-08  1.4967E-07  2.4551E-07  6.9581E-07
        3549        1.000       1.000       1.000      0.5000      3.0149E-06 -1.3126E-06  1.4204E-06 -3.8202E-06  6.7415E-07
        3550        1.000       1.000       1.000      0.5000     -6.2091E-08  9.1423E-08  6.0755E-08  2.5097E-07  1.5414E-08
        3551        1.000       1.000       1.000      0.5000     -1.5049E-07 -2.7389E-07 -2.5379E-08  3.5957E-08  1.2953E-07
        3552        1.000       1.000       1.000      0.5000     -1.5616E-07 -1.9089E-07  2.2163E-07  5.3533E-07  7.7776E-08
        3553        1.000       1.000       1.000      0.5000      3.2863E-06 -1.5657E-07  4.5774E-08  2.9519E-08  3.5619E-07
        3554        1.000       1.000       1.000      0.5000      1.5054E-07 -8.5568E-08  9.1543E-08  2.3389E-07  3.3367E-08
        3555        1.000       1.000       1.000      0.5000     -2.1140E-07 -9.4104E-08  2.0196E-07  3.2678E-07 -2.0652E-07
        3556        1.000       1.000       1.000      0.5000      4.2994E-08 -2.1530E-07  1.5533E-07  1.4249E-07  1.3189E-09
        3557        1.000       1.000       1.000      0.5000      2.0081E-07 -2.8767E-07  4.3301E-07 -1.8882E-07 -9.7343E-08
        3558        1.000       1.000       1.000      0.5000     -1.4043E-05 -3.4328E-07 -1.2871E-06  5.6483E-07  7.3933E-07
        3559        1.000       1.000       1.000      0.5000      5.5099E-07  2.9689E-07  1.4674E-08 -1.2015E-08 -4.4925E-08
        3560        1.000       1.000       1.000      0.5000      6.5563E-07  2.4169E-08  7.1948E-09  3.4065E-08 -1.9284E-08
        3561        1.000       1.000       1.000      0.5000      1.2965E-06  5.1628E-07 -8.4307E-07 -2.1257E-07  1.0782E-06
        3562        1.000       1.000       1.000      0.5000      8.7745E-06 -4.9683E-07 -1.1581E-06  5.0822E-07  6.8041E-07
        3563        1.000       1.000       1.000      0.5000     -1.3932E-05 -4.1842E-08 -1.5561E-07 -1.8189E-06 -3.2627E-06
        3564        1.000       1.000       1.000      0.5000     -3.6265E-07  1.0636E-06 -9.0404E-08  6.3646E-07 -1.1996E-06
        3565        1.000       1.000       1.000      0.5000      4.9357E-06  2.1370E-07 -1.1261E-06 -9.1477E-07 -1.1085E-06
        3566        1.000       1.000       1.000      0.5000      1.5638E-07  2.3776E-08  2.4569E-07  1.7565E-07  9.7944E-08
        3567        1.000       1.000       1.000      0.5000     -6.5523E-07 -5.3728E-07 -8.2542E-07 -4.1762E-07  6.7708E-08
        3568        1.000       1.000       1.000      0.5000      1.1794E-05  4.7174E-07  9.1097E-07  4.1797E-07  4.1899E-07
        3569        1.000       1.000       1.000      0.5000     -2.1415E-06 -6.6976E-07 -9.8521E-07  4.1931E-07 -6.3053E-07
        3570        1.000       1.000       1.000      0.5000     -2.4453E-06  5.7027E-07  8.6311E-07  3.9601E-07  4.0644E-07
        3571        1.000       1.000       1.000      0.5000      1.4787E-06  8.2868E-08  5.0043E-08  1.1182E-07 -8.4330E-08
        3572        1.000       1.000       1.000      0.5000     -1.4803E-05 -3.1989E-07 -1.4090E-06  6.1832E-07  6.0159E-07
        3573        1.000       1.000       1.000      0.5000     -3.6554E-06  3.6457E-06  4.7977E-08 -1.0233E-07 -2.0763E-08
        3574        1.000       1.000       1.000      0.5000      2.6505E-07  1.4415E-07  3.5579E-07  1.5273E-07  6.4697E-08
        3575        1.000       1.000       1.000      0.5000     -3.3221E-07 -3.3506E-07 -2.1800E-07  6.0711E-07  9.5951E-07
        3576        1.000       1.000       1.000      0.5000      1.0893E-05  1.0140E-07 -2.7284E-06  3.1171E-07 -9.3716E-08
        3577        1.000       1.000       1.000      0.5000      2.5494E-07  1.4139E-06  1.6253E-06  1.0003E-06 -8.0091E-07
        3578        1.000       1.000       1.000      0.5000     -5.9377E-07 -5.5305E-07 -5.9898E-07  5.3970E-07  4.3453E-07
        3579        1.000       1.000       1.000      0.5000      1.8302E-06  7.9086E-07 -2.1730E-06  6.8865E-07  4.2657E-07
        3580        1.000       1.000       1.000      0.5000      3.0769E-08 -3.5191E-09  1.8273E-08  8.5270E-08  3.2295E-08
        3581        1.000       1.000       1.000      0.5000      5.5354E-08  3.3126E-07  4.8319E-07 -3.2843E-07 -3.5777E-07
        3582        1.000       1.000       1.000      0.5000     -7.1536E-08  2.8692E-07  3.1515E-07 -4.7135E-07  1.3691E-08
        3583        1.000       1.000       1.000      0.5000      9.7822E-07  1.2566E-06 -8.6587E-07 -1.0664E-06 -5.4246E-07
        3584        1.000       1.000       1.000      0.5000      3.9215E-07  3.4145E-07 -4.7288E-07  2.5571E-07  5.6020E-09
        3585        1.000       1.000       1.000      0.5000      1.0826E-05 -8.2283E-08 -1.2113E-06 -1.6320E-06 -2.9728E-06
        3586        1.000       1.000       1.000      0.5000     -2.5583E-07 -1.2918E-07 -6.9420E-07  3.1488E-07  2.3881E-08
        3587        1.000       1.000       1.000      0.5000     -3.3738E-06 -4.8929E-07  8.1216E-07 -2.6229E-07 -3.6884E-07
        3588        1.000       1.000       1.000      0.5000      1.0474E-05  3.0072E-07 -4.4543E-08 -1.1285E-06 -2.6559E-07
        3589        1.000       1.000       1.000      0.5000      7.0934E-06 -4.9468E-08 -1.3121E-06  5.7578E-07  7.2836E-07
        3590        1.000       1.000       1.000      0.5000      7.0591E-07  2.3113E-08  9.4264E-09  4.4631E-08 -2.3572E-08
        3591        1.000       1.000       1.000      0.5000      1.2827E-07  1.2725E-07 -2.2002E-07 -1.8896E-07 -5.1242E-08
        3592        1.000       1.000       1.000      0.5000      1.8636E-06  1.5995E-06  2.0598E-06 -1.9160E-06  1.1008E-07
        3593        1.000       1.000       1.000      0.5000     -8.9331E-08  6.9750E-07 -1.3103E-06 -1.4775E-06 -1.9569E-07
        3594        1.000       1.000       1.000      0.5000      2.0308E-07  5.9404E-09 -2.1284E-07 -3.9981E-09  4.8722E-08
        3595        1.000       1.000       1.000      0.5000     -1.7440E-06  4.1742E-07  9.4840E-07  4.3514E-07  4.0676E-07
        3596        1.000       1.000       1.000      0.5000      5.4320E-08  1.5574E-08 -5.7660E-08 -2.5042E-08  6.5847E-10
        3597        1.000       1.000       1.000      0.5000     -9.7478E-08  3.0704E-08 -2.6389E-07 -1.1633E-08  9.0960E-08
        3598        1.000       1.000       1.000      0.5000     -4.1715E-07 -2.5736E-07 -2.4444E-07  1.6924E-07 -1.2113E-09
        3599        1.000       1.000       1.000      0.5000      8.2117E-07  3.3411E-08  9.0618E-08 -1.9817E-07 -9.2359E-08
        3600        1.000       1.000       1.000      0.5000      8.3774E-07 -7.8054E-08  1.0709E-06 -6.8953E-07 -5.1557E-07
        3601        1.000       1.000       1.000      0.5000     -2.2137E-06  6.4432E-07 -4.0658E-07  5.3543E-07  3.3410E-07
        3602        1.000       1.000       1.000      0.5000     -2.1627E-06 -7.9870E-08  2.9570E-08 -3.7653E-09 -1.4019E-08
        3603        1.000       1.000       1.000      0.5000      1.2452E-06  9.0654E-08  3.7441E-08  8.3662E-08 -6.6226E-08
        3604        1.000       1.000       1.000      0.5000      3.7144E-07 -3.3472E-07  4.9873E-07 -2.4127E-07  4.5045E-08
        3605        1.000       1.000       1.000      0.5000     -2.5232E-08  6.5029E-08  1.0170E-08 -4.0570E-08  9.4243E-08
        3606        1.000       1.000       1.000      0.5000      2.7157E-07 -1.1745E-07 -1.9513E-07  3.1613E-08  1.3241E-07
        3607        1.000       1.000       1.000      0.5000      1.0818E-05  2.5098E-07 -1.1477E-06 -9.3236E-07 -1.0754E-06
        3608        1.000       1.000       1.000      0.5000      1.7882E-06  1.0765E-06 -1.9624E-06  6.6172E-07 -3.5359E-07
        3609        1.000       1.000       1.000      0.5000      2.5355E-07  1.3741E-07 -3.1251E-07 -8.0645E-08 -2.1306E-09
        3610        1.000       1.000       1.000      0.5000     -9.7970E-08  7.1905E-07  3.2338E-08  1.5103E-07 -2.8548E-07
        3611        1.000       1.000       1.000      0.5000      1.9050E-07  2.7263E-08  1.8088E-07 -2.4875E-07  4.4227E-08
        3612        1.000       1.000       1.000      0.5000      5.3315E-08 -1.3750E-07  7.9278E-08  6.5069E-08 -1.8412E-07
        3613        1.000       1.000       1.000      0.5000     -5.5520E-08 -3.7421E-08  2.6985E-08  3.8868E-08 -5.3214E-09
        3614        1.000       1.000       1.000      0.5000     -1.5897E-05  2.7886E-07  1.7880E-06  4.2800E-06 -3.0608E-06
        3615        1.000       1.000       1.000      0.5000      2.7618E-06 -1.7565E-06  1.1351E-06  2.4475E-06 -5.3440E-07
        3616        1.000       1.000       1.000      0.5000      3.0495E-06 -5.6415E-07 -1.0570E-06 -1.4940E-06  1.9736E-06
        3617        1.000       1.000       1.000      0.5000      1.4978E-06 -2.0864E-07 -1.1169E-06 -1.4720E-06  1.6809E-06
        3618        1.000       1.000       1.000      0.5000     -1.4747E-06 -2.4506E-06  2.6805E-06 -9.9031E-07 -6.1017E-07
        3619        1.000       1.000       1.000      0.5000      4.0350E-06  9.6868E-07 -3.8591E-07 -2.8760E-07  5.0800E-07
        3620        1.000       1.000       1.000      0.5000      4.3403E-06  5.7772E-07 -2.8351E-08 -3.0761E-09 -5.5513E-08
        3621        1.000       1.000       1.000      0.5000      5.5330E-07  3.2437E-07 -7.2089E-08 -9.3364E-08  2.2341E-07
        3622        1.000       1.000       1.000      0.5000     -4.2032E-07 -1.2347E-07  1.8111E-09 -1.2098E-07  2.3347E-07
        3623        1.000       1.000       1.000      0.5000      9.1755E-07 -6.9931E-08  1.5762E-08 -4.8863E-08 -3.8217E-07

 MAXIMUM           1.000       1.000       1.000      0.5000      1.9390E-05  3.8304E-06  5.6496E-06  5.6369E-06  6.0300E-06
 ELEMENT               3287         883        2193        2493        2315        1447         882        2937        2256 

 MINIMUM           1.000       1.000       1.000      0.5000     -1.8371E-05 -5.2286E-06 -4.8293E-06 -5.4802E-06 -4.2779E-06
 ELEMENT               3270        1763        3465        2417        1847        2936        1364        2199        3465 


          THE ANALYSIS HAS BEEN COMPLETED



                              ANALYSIS COMPLETE
                              WITH     24 WARNING MESSAGES ON THE DAT FILE



     JOB TIME SUMMARY
       USER TIME (SEC)      =  0.50000    
       SYSTEM TIME (SEC)    =   0.0000    
       TOTAL CPU TIME (SEC) =  0.50000    
       WALLCLOCK TIME (SEC) =          1
