*Heading
** Job name: SolidSphere_linear Model name: SolidSphere
** Generated by: Abaqus/CAE 6.14-1
*Preprint, echo=NO, model=NO, history=NO, contact=NO
**
** PARTS
**
*Part, name=Part-1
*Node
      1,   6.67562819,   29.2478371,           0.
      2,   13.0165119,   27.0290661,           0.
      3,   18.7046947,   23.4549446,           0.
      4,   23.4549446,   18.7046947,           0.
      5,   27.0290661,   13.0165119,           0.
      6,   29.2478371,   6.67562819,           0.
      7,          30.,           0.,           0.
      8,   29.2478371,  -6.67562819,           0.
      9,   27.0290661,  -13.0165119,           0.
     10,   23.4549446,  -18.7046947,           0.
     11,   18.7046947,  -23.4549446,           0.
     12,   13.0165119,  -27.0290661,           0.
     13,   6.67562819,  -29.2478371,           0.
     14,           0.,          30.,           0.
     15,           0.,         -30.,           0.
     16,   -29.171751,  -1.71882069,  -6.78635311
     17,   -29.915163, -0.592307985,  -2.17535448
     18,  -29.9079514,  0.617958248,   2.26550889
     19,  -29.1109142,    1.9697994,   6.97671509
     20,   1.13600814,   29.3617916,  -6.04935265
** ... 766 like lines cut
*Element, type=C3D4
   1, 330, 331, 332, 333
   2, 330, 332, 331, 334
   3, 330, 334, 335, 336
   4, 330, 337, 334, 336
   5, 330, 338, 339, 340
   6, 330, 341, 338, 340
   7, 342, 343, 344, 345
   8, 346, 347, 348, 349
   9, 347, 342, 350, 349
  10, 342, 351, 343, 339
  11, 342, 344, 347, 345
  12, 345, 342, 350, 347
  13, 285, 352, 293, 284
  14, 342, 351, 339, 350
  15, 353, 354, 355, 356
  16, 353, 357, 354, 358
  17, 359, 360, 357, 353
  18, 358, 361, 362, 353
  19, 353, 362, 356, 363
  20, 353, 362, 363, 364
** ... 3603 like lines cut
*Nset, nset=_PickedSet8, internal, generate
   1,  786,    1
*Elset, elset=_PickedSet8, internal, generate
    1,  3623,     1
*Elset, elset=_Surf-1_S4, internal
   13,  458,  607,  803,  815, 1087, 1337, 1368, 1496, 1514, 1523, 1622, 1629, 1662, 1681, 1774
 1800, 1827, 1835, 1841, 1957, 1968, 2026, 2144, 2347, 2360, 2361, 2463, 2529, 2619, 2652, 2665
 2702, 2723, 2739, 3114, 3288, 3351
*Elset, elset=_Surf-1_S3, internal
   21,   30,   51,   54,   80,  101,  121,  145,  177,  244,  289,  293,  314,  326,  348,  360
  399,  417,  427,  488,  585,  586,  602,  667,  674,  696,  757,  769,  824,  886,  931,  961
 1016, 1035, 1118, 1173, 1174, 1188, 1291, 1365, 1425, 1500, 1610, 1614, 1621, 1623, 1630, 1631
 1632, 1634, 1640, 1643, 1647, 1648, 1654, 1658, 1659, 1660, 1676, 1682, 1684, 1688, 1693, 1694
 1695, 1697, 1702, 1703, 1708, 1714, 1715, 1716, 1718, 1719, 1720, 1724, 1725, 1728, 1729, 1732
 1733, 1736, 1739, 1741, 1742, 1743, 1744, 1746, 1748, 1752, 1753, 1760, 1761, 1763, 1768, 1772
 1775, 1778, 1782, 1783, 1784, 1785, 1791, 1795, 1796, 1797, 1801, 1813, 1814, 1819, 1820, 1823
 1828, 1829, 1831, 1832, 1833, 1839, 1846, 1847, 1848, 1851, 1852, 1854, 1856, 1857, 1858, 1862
 1864, 1866, 1868, 1873, 1875, 1876, 1877, 1878, 1886, 1888, 1890, 1892, 1893, 1900, 1903, 1908
 1911, 1912, 1913, 1915, 1917, 1918, 1929, 1931, 1932, 1937, 1939, 1943, 1945, 1953, 1954, 1955
 1956, 1959, 1960, 1964, 1967, 1969, 1973, 1975, 1981, 1982, 1983, 1984, 1985, 1986, 1989, 2006
 2012, 2014, 2019, 2028, 2034, 2036, 2041, 2047, 2048, 2052, 2053, 2055, 2056, 2057, 2062, 2069
 2070, 2071, 2073, 2079, 2083, 2085, 2086, 2091, 2092, 2095, 2096, 2098, 2099, 2105, 2108, 2111
 2113, 2114, 2116, 2117, 2126, 2129, 2143, 2147, 2160, 2165, 2170, 2173, 2179, 2180, 2182, 2183
 2184, 2188, 2189, 2190, 2194, 2198, 2200, 2201, 2204, 2208, 2210, 2212, 2214, 2218, 2219, 2222
 2223, 2224, 2229, 2231, 2236, 2244, 2246, 2252, 2257, 2260, 2264, 2270, 2272, 2277, 2280, 2281
 2282, 2284, 2289, 2294, 2295, 2300, 2310, 2315, 2317, 2327, 2337, 2338, 2375, 2380, 2384, 2388
 2391, 2396, 2397, 2405, 2406, 2408, 2409, 2410, 2412, 2413, 2417, 2423, 2424, 2428, 2430, 2450
 2451, 2461, 2462, 2466, 2487, 2489, 2493, 2503, 2504, 2505, 2512, 2519, 2538, 2541, 2546, 2547
 2552, 2557, 2560, 2561, 2566, 2567, 2573, 2574, 2575, 2577, 2585, 2591, 2595, 2597, 2599, 2602
** ... 17 like lines cut
*Elset, elset=_Surf-1_S1, internal
  339,  784,  933, 1375, 1423, 1538, 2109, 2303, 2459, 2539, 2725, 2772, 3006, 3300, 3599
*Elset, elset=_Surf-1_S2, internal
  392, 1663, 1762, 1882, 2192, 2207, 2373, 2427, 2536, 2666, 2686, 2830, 2846, 3016, 3306, 3350
 3390, 3559
*Surface, type=ELEMENT, name=Surf-1
_Surf-1_S4, S4
_Surf-1_S3, S3
_Surf-1_S2, S2
_Surf-1_S1, S1
** Section: Section-1
*Solid Section, elset=_PickedSet8, material=Material-1
,
*End Part
**  
**
** ASSEMBLY
**
*Assembly, name=Assembly
**  
*Instance, name=Part-1-1, part=Part-1
*End Instance
**  
*Nset, nset=Set-bc, instance=Part-1-1, generate
   1,  329,    1
*Elset, elset=Set-bc, instance=Part-1-1
   13,   21,   30,   51,   54,   80,  101,  121,  145,  177,  244,  289,  293,  314,  326,  339
  348,  360,  392,  399,  417,  427,  458,  488,  585,  586,  602,  607,  667,  674,  696,  757
  769,  784,  803,  815,  824,  886,  931,  933,  961, 1016, 1035, 1087, 1118, 1173, 1174, 1188
 1291, 1337, 1365, 1368, 1375, 1423, 1425, 1496, 1500, 1514, 1523, 1538, 1610, 1614, 1621, 1622
 1623, 1629, 1630, 1631, 1632, 1634, 1640, 1643, 1647, 1648, 1654, 1658, 1659, 1660, 1662, 1663
 1676, 1681, 1682, 1684, 1688, 1693, 1694, 1695, 1697, 1702, 1703, 1708, 1714, 1715, 1716, 1718
 1719, 1720, 1724, 1725, 1728, 1729, 1732, 1733, 1736, 1739, 1741, 1742, 1743, 1744, 1746, 1748
 1752, 1753, 1760, 1761, 1762, 1763, 1768, 1772, 1774, 1775, 1778, 1782, 1783, 1784, 1785, 1791
 1795, 1796, 1797, 1800, 1801, 1813, 1814, 1819, 1820, 1823, 1827, 1828, 1829, 1831, 1832, 1833
 1835, 1839, 1841, 1846, 1847, 1848, 1851, 1852, 1854, 1856, 1857, 1858, 1862, 1864, 1866, 1868
 1873, 1875, 1876, 1877, 1878, 1882, 1886, 1888, 1890, 1892, 1893, 1900, 1903, 1908, 1911, 1912
 1913, 1915, 1917, 1918, 1929, 1931, 1932, 1937, 1939, 1943, 1945, 1953, 1954, 1955, 1956, 1957
 1959, 1960, 1964, 1967, 1968, 1969, 1973, 1975, 1981, 1982, 1983, 1984, 1985, 1986, 1989, 2006
 2012, 2014, 2019, 2026, 2028, 2034, 2036, 2041, 2047, 2048, 2052, 2053, 2055, 2056, 2057, 2062
 2069, 2070, 2071, 2073, 2079, 2083, 2085, 2086, 2091, 2092, 2095, 2096, 2098, 2099, 2105, 2108
 2109, 2111, 2113, 2114, 2116, 2117, 2126, 2129, 2143, 2144, 2147, 2160, 2165, 2170, 2173, 2179
 2180, 2182, 2183, 2184, 2188, 2189, 2190, 2192, 2194, 2198, 2200, 2201, 2204, 2207, 2208, 2210
 2212, 2214, 2218, 2219, 2222, 2223, 2224, 2229, 2231, 2236, 2244, 2246, 2252, 2257, 2260, 2264
 2270, 2272, 2277, 2280, 2281, 2282, 2284, 2289, 2294, 2295, 2300, 2303, 2310, 2315, 2317, 2327
 2337, 2338, 2347, 2360, 2361, 2373, 2375, 2380, 2384, 2388, 2391, 2396, 2397, 2405, 2406, 2408
** ... 21 like lines cut
*End Assembly
** 
** MATERIALS
** 
*Material, name=Material-1
*Hyperelastic, neo hooke
 3.44828e+08, 3e-10
*Material, name=Material-2
*User Material, constants=2
 3.44828e+08, 3e-10
** ----------------------------------------------------------------
** 
** STEP: Step-1
** 
*Step, name=Step-1, nlgeom=YES
*Static
1., 1., 1e-05, 1.
** 
** BOUNDARY CONDITIONS
** 
** Name: BC-1 Type: Displacement/Rotation Using Analytical Field: AnalyticalField-1
*Boundary
Part-1-1.1, 1, 1, 14.6239
Part-1-1.2, 1, 1, 13.5145
Part-1-1.3, 1, 1, 11.7275
Part-1-1.4, 1, 1, 9.35235
Part-1-1.5, 1, 1, 6.50826
Part-1-1.6, 1, 1, 3.33781
Part-1-1.7, 1, 1, 8.32667e-16
Part-1-1.8, 1, 1, -3.33781
Part-1-1.9, 1, 1, -6.50826
Part-1-1.10, 1, 1, -9.35235
Part-1-1.11, 1, 1, -11.7275
Part-1-1.12, 1, 1, -13.5145
Part-1-1.13, 1, 1, -14.6239
Part-1-1.14, 1, 1, 15.
Part-1-1.15, 1, 1, -15.
Part-1-1.16, 1, 1, -0.85941
Part-1-1.17, 1, 1, -0.296154
Part-1-1.18, 1, 1, 0.308979
Part-1-1.19, 1, 1, 0.9849
Part-1-1.20, 1, 1, 14.6809
** ... 967 like lines cut
** 
** OUTPUT REQUESTS
** 
*Restart, write, frequency=0
** 
** FIELD OUTPUT: F-Output-1
** 
*Output, field
*Node Output
CF, COORD, RF, RM, RT, TF, U, UR
UT, V, VF, VR, VT
*Element Output, directions=NO
ALPHA, ALPHAN, BF, CENTMAG, CENTRIFMAG, CORIOMAG, CS11, CTSHR, E, EE, ER, ESF1, GRAV, HP, IE, LE
MISES, MISESMAX, MISESONLY, NE, NFORC, NFORCSO, P, PE, PEEQ, PEEQMAX, PEEQT, PEMAG, PEQC, PRESSONLY, PS, ROTAMAG
S, SALPHA, SE, SEE, SEP, SEPE, SF, SPE, SSAVG, THE, TRIAX, TRNOR, TRSHR, TSHR, VE, VEEQ
VS
*EL PRINT,POSITION=CENTROID
DG
** 
** HISTORY OUTPUT: H-Output-1
** 
*Output, history, variable=PRESELECT
*End Step
