*Heading
** Job name: SolidSphereFine2_shear Model name: SolidSphereFine
** Generated by: Abaqus/CAE Unofficial Packaging Version
*Preprint, echo=NO, model=NO, history=NO, contact=NO
**
** PARTS
**
*Part, name=Part-1
*Node
      1,  0.124681517, -0.00891739782,           0.
      2,  0.122143358, -0.026570661,           0.
      3,  0.119936623, -0.0352165699,           0.
      4,  0.113703996, -0.0519268773,           0.
      5,  0.109709874, -0.0599061251,           0.
      6,  0.100067653, -0.0749097094,           0.
      7, 0.0944686979, -0.0818575919,           0.
      8, 0.0818575919, -0.0944686979,           0.
      9, 0.0749097094, -0.100067653,           0.
     10, 0.0599061251, -0.109709874,           0.
     11, 0.0519268773, -0.113703996,           0.
     12, 0.0352165699, -0.119936623,           0.
     13,  0.026570661, -0.122143358,           0.
     14, 0.00891739782, -0.124681517,           0.
     15,        0.125,           0.,           0.
     16,           0.,       -0.125,           0.
     17, 0.00891739782,  0.124681517,           0.
     18,  0.026570661,  0.122143358,           0.
     19, 0.0352165699,  0.119936623,           0.
     20, 0.0519268773,  0.113703996,           0.
** ... 8966 like lines cut
*Element, type=C3D4
    1, 2502, 2503, 2504, 2505
    2, 2503, 2506, 2504, 2505
    3, 2503, 2507, 2508, 2509
    4, 2503, 2510, 2511, 2509
    5, 2503, 2511, 2510, 2512
    6, 2503, 2511, 2506, 2507
    7, 2503, 2513, 2510, 2509
    8, 2514, 2515, 2516, 2517
    9, 2514, 2518, 2519, 2520
   10, 2514, 2521, 2522, 2523
   11, 2514, 2521, 2523, 2518
   12, 2514, 2521, 2524, 2516
   13, 2521, 2525, 2526, 2527
   14, 2514, 2521, 2516, 2528
   15, 2521, 2524, 2516, 2529
   16, 2521, 2518, 2524, 2530
   17, 2531, 2532, 2533, 2534
   18, 2535, 2536, 2537, 2538
   19, 2535, 2539, 2540, 2538
   20, 2535, 2541, 2539, 2542
** ... 46452 like lines cut
*Nset, nset=_PickedSet6, internal, generate
    1,  8986,     1
*Elset, elset=_PickedSet6, internal, generate
     1,  46472,      1
*Nset, nset=Set-bc, generate
    1,  2501,     1
*Elset, elset=Set-bc
    43,    55,    71,   130,   170,   172,   206,   227,   230,   244,   246,   267,   272,   281,   316,   325
   344,   349,   355,   359,   363,   380,   386,   392,   428,   449,   456,   472,   483,   511,   516,   521
   558,   607,   609,   612,   623,   635,   674,   697,   701,   717,   720,   732,   737,   782,   794,   828
   831,   832,   844,   849,   854,   862,   892,   899,   902,   916,   928,   961,   964,   996,  1016,  1030
  1044,  1079,  1129,  1131,  1143,  1149,  1164,  1172,  1187,  1197,  1211,  1218,  1243,  1266,  1269,  1286
  1323,  1330,  1332,  1340,  1341,  1359,  1370,  1371,  1389,  1390,  1400,  1407,  1412,  1422,  1425,  1431
  1445,  1450,  1453,  1454,  1463,  1470,  1481,  1490,  1502,  1503,  1506,  1507,  1509,  1533,  1552,  1576
  1580,  1591,  1633,  1640,  1643,  1675,  1680,  1700,  1712,  1716,  1751,  1765,  1775,  1782,  1812,  1837
  1924,  1925,  1926,  1938,  1969,  2035,  2046,  2080,  2140,  2149,  2171,  2211,  2226,  2242,  2275,  2346
  2355,  2362,  2373,  2379,  2405,  2430,  2489,  2493,  2501,  2524,  2531,  2546,  2550,  2562,  2565,  2582
  2586,  2599,  2651,  2696,  2784,  2786,  2787,  2789,  2813,  2815,  2817,  2818,  2826,  2841,  2871,  2915
  2918,  2919,  2923,  2926,  2972,  2981,  2982,  3014,  3028,  3033,  3038,  3095,  3098,  3129,  3163,  3274
  3332,  3480,  3665,  3666,  3671,  3675,  3680,  3681,  3682,  3685,  3686,  3690,  3698,  3699,  3700,  3703
  3704,  3707,  3710,  3711,  3714,  3718,  3719,  3722,  3723,  3725,  3729,  3733,  3735,  3740,  3741,  3743
  3746,  3747,  3748,  3749,  3750,  3753,  3754,  3755,  3757,  3764,  3767,  3770,  3772,  3774,  3775,  3778
  3780,  3784,  3788,  3794,  3798,  3799,  3800,  3801,  3803,  3806,  3807,  3809,  3811,  3813,  3817,  3819
  3829,  3832,  3834,  3837,  3839,  3840,  3841,  3850,  3854,  3857,  3860,  3865,  3866,  3867,  3869,  3870
  3874,  3878,  3884,  3885,  3886,  3891,  3897,  3900,  3901,  3908,  3911,  3912,  3915,  3917,  3919,  3921
  3923,  3924,  3928,  3930,  3933,  3936,  3940,  3944,  3945,  3946,  3949,  3951,  3962,  3965,  3969,  3972
  3974,  3975,  3978,  3984,  3986,  3988,  3990,  3992,  3993,  3994,  3995,  3997,  4000,  4001,  4002,  4005
** ... 293 like lines cut
** Section: Section-1
*Solid Section, elset=_PickedSet6, material=Material-1
,
*End Part
**  
**
** ASSEMBLY
**
*Assembly, name=Assembly
**  
*Instance, name=Part-1-1, part=Part-1
*End Instance
**  
*Nset, nset=Set-bc, instance=Part-1-1, generate
    1,  2501,     1
*Elset, elset=Set-bc, instance=Part-1-1
    43,    55,    71,   130,   170,   172,   206,   227,   230,   244,   246,   267,   272,   281,   316,   325
   344,   349,   355,   359,   363,   380,   386,   392,   428,   449,   456,   472,   483,   511,   516,   521
   558,   607,   609,   612,   623,   635,   674,   697,   701,   717,   720,   732,   737,   782,   794,   828
   831,   832,   844,   849,   854,   862,   892,   899,   902,   916,   928,   961,   964,   996,  1016,  1030
  1044,  1079,  1129,  1131,  1143,  1149,  1164,  1172,  1187,  1197,  1211,  1218,  1243,  1266,  1269,  1286
  1323,  1330,  1332,  1340,  1341,  1359,  1370,  1371,  1389,  1390,  1400,  1407,  1412,  1422,  1425,  1431
  1445,  1450,  1453,  1454,  1463,  1470,  1481,  1490,  1502,  1503,  1506,  1507,  1509,  1533,  1552,  1576
  1580,  1591,  1633,  1640,  1643,  1675,  1680,  1700,  1712,  1716,  1751,  1765,  1775,  1782,  1812,  1837
  1924,  1925,  1926,  1938,  1969,  2035,  2046,  2080,  2140,  2149,  2171,  2211,  2226,  2242,  2275,  2346
  2355,  2362,  2373,  2379,  2405,  2430,  2489,  2493,  2501,  2524,  2531,  2546,  2550,  2562,  2565,  2582
  2586,  2599,  2651,  2696,  2784,  2786,  2787,  2789,  2813,  2815,  2817,  2818,  2826,  2841,  2871,  2915
  2918,  2919,  2923,  2926,  2972,  2981,  2982,  3014,  3028,  3033,  3038,  3095,  3098,  3129,  3163,  3274
  3332,  3480,  3665,  3666,  3671,  3675,  3680,  3681,  3682,  3685,  3686,  3690,  3698,  3699,  3700,  3703
  3704,  3707,  3710,  3711,  3714,  3718,  3719,  3722,  3723,  3725,  3729,  3733,  3735,  3740,  3741,  3743
  3746,  3747,  3748,  3749,  3750,  3753,  3754,  3755,  3757,  3764,  3767,  3770,  3772,  3774,  3775,  3778
  3780,  3784,  3788,  3794,  3798,  3799,  3800,  3801,  3803,  3806,  3807,  3809,  3811,  3813,  3817,  3819
  3829,  3832,  3834,  3837,  3839,  3840,  3841,  3850,  3854,  3857,  3860,  3865,  3866,  3867,  3869,  3870
  3874,  3878,  3884,  3885,  3886,  3891,  3897,  3900,  3901,  3908,  3911,  3912,  3915,  3917,  3919,  3921
  3923,  3924,  3928,  3930,  3933,  3936,  3940,  3944,  3945,  3946,  3949,  3951,  3962,  3965,  3969,  3972
  3974,  3975,  3978,  3984,  3986,  3988,  3990,  3992,  3993,  3994,  3995,  3997,  4000,  4001,  4002,  4005
** ... 293 like lines cut
*Nset, nset=Set-leftPoint, instance=Part-1-1
 44,
*Nset, nset=Set-leftsmall, instance=Part-1-1
   43,   44,   45, 1297, 1299, 1328, 1329, 1330, 2836
*Nset, nset=Set-rightPoint, instance=Part-1-1
 15,
*Nset, nset=Set-rightsmall, instance=Part-1-1
   1,  15,  30,  80, 106, 657, 686
*Nset, nset=_PickedSet26, internal, instance=Part-1-1, generate
    1,  8986,     1
*Elset, elset=_PickedSet26, internal, instance=Part-1-1, generate
     1,  46472,      1
*Nset, nset=_PickedSet27, internal, instance=Part-1-1, generate
    1,  8986,     1
*Elset, elset=_PickedSet27, internal, instance=Part-1-1, generate
     1,  46472,      1
*Nset, nset=_PickedSet28, internal, instance=Part-1-1, generate
    1,  8986,     1
*Elset, elset=_PickedSet28, internal, instance=Part-1-1, generate
     1,  46472,      1
*End Assembly
** 
** MATERIALS
** 
*Material, name=Material-1
*Hyperelastic, neo hooke
 3.44828e+08, 3e-10
** ----------------------------------------------------------------
** 
** STEP: Step-1
** 
*Step, name=Step-1, nlgeom=YES
*Static
1., 1., 1e-05, 1.
** 
** BOUNDARY CONDITIONS
** 
** Name: BC-shear Type: Displacement/Rotation Using Analytical Field: AnalyticalField-shear_Y
*Boundary
Part-1-1.1, 1, 1
Part-1-1.2, 1, 1
Part-1-1.3, 1, 1
Part-1-1.4, 1, 1
Part-1-1.5, 1, 1
Part-1-1.6, 1, 1
Part-1-1.7, 1, 1
Part-1-1.8, 1, 1
Part-1-1.9, 1, 1
Part-1-1.10, 1, 1
Part-1-1.11, 1, 1
Part-1-1.12, 1, 1
Part-1-1.13, 1, 1
Part-1-1.14, 1, 1
Part-1-1.15, 1, 1
Part-1-1.16, 1, 1
Part-1-1.17, 1, 1
Part-1-1.18, 1, 1
Part-1-1.19, 1, 1
Part-1-1.20, 1, 1
** ... 7483 like lines cut
** 
** OUTPUT REQUESTS
** 
*Restart, write, frequency=0
** 
** FIELD OUTPUT: F-Output-1
** 
*Output, field
*Node Output
CF, COORD, RF, U
*Element Output, directions=NO
LE, PE, PEEQ, PEMAG, S
*Contact Output
CDISP, CSTRESS
*EL PRINT, POSITION=CENTROID
DG
** 
** HISTORY OUTPUT: H-Output-1
** 
*Output, history, variable=PRESELECT
*End Step
