1

   Abaqus 6.14-1                                  Date 14-Jan-2019   Time 22:31:03
   For use at OREGON STATE UNIVERSITY under license from Dassault Systemes or its subsidiary.



                         The Abaqus Software is a product of:

                           Dassault Systemes Simulia Corp.
                                 Rising Sun Mills
                                 166 Valley Street
                           Providence, RI 02909-2499, USA
 


                   Available for internal use at OREGON STATE UNIVERSITY. 
                   The Abaqus Online Support System is accessible
                   through the "My Support" section of the SIMULIA
                   Home Page at http://www.simulia.com.

                   Support policies for academic licenses are described
                   on the SIMULIA web site at
                   http://www.3ds.com/products/simulia/academics/
 
                          On machine whitestones 
                          you are authorized to run
                          Abaqus/Standard until 15-Aug-2019

                          Your site id is: 200000000024345 


 
                    For assistance or any other information you may
                    obtain contact information for your local office
                    from the world wide web at:

                      http://www.3ds.com/products/simulia/locations/

 
                * * * * * * * * * * * * * * * * * * * * * * * * * * * * * * 
                *                                                         * 
                *                   *****************                     * 
                *                   *  N O T I C E  *                     * 
                *                   *****************                     * 
                *                                                         * 
                *                                                         * 
                *                    Abaqus 6.14-1                        * 
                *                                                         * 
                *          BUILD ID: 2014_06_04-15.11.02 134264           * 
                *                                                         * 
                *                                                         * 
                *  Please make sure you are using release 6.14 manuals    * 
                *  plus the notes accompanying this release.              * 
                *                                                         * 
                *                                                         * 
                *                                                         * 
                *                                                         * 
                *                                                         * 
                *   This program may not be used for commercial purposes  * 
                *           without payment of a commercial fee.          * 
                *                                                         * 
                * * * * * * * * * * * * * * * * * * * * * * * * * * * * * * 


 



     PROCESSING PART, INSTANCE, AND ASSEMBLY INFORMATION
   *******************************************************


     END PROCESSING PART, INSTANCE, AND ASSEMBLY INFORMATION
   ***********************************************************




     OPTIONS BEING PROCESSED
   ***************************


  *Heading
  *Node
  *Element, type=C3D4
  *Nset, nset=ASSEMBLY_PART-1-1__PICKEDSET10
  *Elset, elset=ASSEMBLY_PART-1-1__PICKEDSET10
  *Nset, nset=ASSEMBLY_SET-BC
  *Nset, nset=ASSEMBLY__PICKEDSET6
  *Nset, nset=ASSEMBLY__PICKEDSET7
  *Nset, nset=ASSEMBLY__PICKEDSET8
  *Elset, elset=ASSEMBLY_SET-BC
  *Elset, elset=ASSEMBLY__PICKEDSET6
  *Elset, elset=ASSEMBLY__PICKEDSET7
  *Elset, elset=ASSEMBLY__PICKEDSET8
  *material, name=MATERIAL-1
  *hyperelastic, neohooke
  *solidsection, elset=ASSEMBLY_PART-1-1__PICKEDSET10, material=MATERIAL-1
  *boundary
  *boundary
  *boundary
  *solidsection, elset=ASSEMBLY_PART-1-1__PICKEDSET10, material=MATERIAL-1
  *output, field
  *output, history, variable=PRESELECT
  *elementoutput, directions=NO
  *output, field
  *output, history, variable=PRESELECT
  *elementoutput, directions=NO
  *output, field
  *output, history, variable=PRESELECT
  *elementoutput, directions=NO
  *Step, name=Step-1, nlgeom=YES
  *output, field
  *output, history, variable=PRESELECT
  *Step, name=Step-1, nlgeom=YES
  *Step, name=Step-1, nlgeom=YES
  *static
  *boundary
  *boundary
  *boundary
  *output, field
  *nodeoutput
  *elementoutput, directions=NO
  *elprint, position=CENTROIDAL

 ***WARNING: OUTPUT REQUEST DG IS ONLY AVAILABLE FOR *HYPERELASTIC/FOAM AND 
             *USER MATERIAL.
  *output, history, variable=PRESELECT
  *endstep

 ***WARNING: OUTPUT REQUEST V IS NOT AVAILABLE FOR THIS TYPE OF ANALYSIS

 ***WARNING: OUTPUT REQUEST VT IS NOT AVAILABLE FOR THIS TYPE OF ANALYSIS

 ***WARNING: OUTPUT REQUEST SEPE IS NOT AVAILABLE FOR ELEMENT TYPE C3D4

 ***WARNING: OUTPUT REQUEST SPE IS NOT AVAILABLE FOR ELEMENT TYPE C3D4

 ***WARNING: OUTPUT REQUEST VE IS NOT AVAILABLE FOR THE MATERIAL FOR ELEMENT 
             TYPE C3D4

 ***WARNING: OUTPUT REQUEST VEEQ IS NOT AVAILABLE FOR THE MATERIAL FOR ELEMENT 
             TYPE C3D4

 ***WARNING: OUTPUT REQUEST SALPHA IS NOT AVAILABLE FOR ELEMENT TYPE C3D4

 ***WARNING: OUTPUT REQUEST SE IS NOT AVAILABLE FOR ELEMENT TYPE C3D4

 ***WARNING: OUTPUT REQUEST SEE IS NOT AVAILABLE FOR ELEMENT TYPE C3D4

 ***WARNING: OUTPUT REQUEST SEP IS NOT AVAILABLE FOR ELEMENT TYPE C3D4
  *Step, name=Step-1, nlgeom=YES
  *static
  *boundary
  *boundary
  *boundary
  *endstep


                              E L E M E N T,   N O D E,   A N D   S U R F A C E   M A P S


**NOTE: This section may not include complete information about
        members of sets and surfaces. Use *PREPRINT, MODEL=YES 
        in order to get the set and surface members printed    
        under the following sections:                          
            - E L E M E N T   S E T S                          
            - N O D E   S E T S                                
            - S U R F A C E   D E F I N I T I O N S .          


Assembly name: ASSEMBLY
Number of instances: 1

ASSEMBLY LEVEL
  node sets:
    SET-BC:
      instance name: PART-1-1
      number of nodes: 440
      nodes: 
        1 2 3 4 5 6 7 8 9 10 11 12 13 14 15 16 17 18 19 20 21 22 23 24
        25 26 27 28 29 30 31 32 33 34 35 36 37 38 39 40 41 42 43 44 45
        46 47 48 49 50 51 52 53 54 55 56 57 58 59 60 61 62 63 64 65 66
        67 68 69 70 71 72 73 74 75 76 77 78 79 80 81 82 83 84 85 86 87
        88 89 90 91 92 93 94 95 96 97 98 99 100 101 102 103 104 105 106
        107 108 109 110 111 112 113 114 115 116 117 118 119 120 121 122
        123 124 125 126 127 128 129 130 131 132 133 134 135 136 137 138
        139 140 141 142 143 144 145 146 147 148 149 150 151 152 153 154
        155 156 157 158 159 160 161 162 163 164 165 166 167 168 169 170
        171 172 173 174 175 176 177 178 179 180 181 182 183 184 185 186
        187 188 189 190 191 192 193 194 195 196 197 198 199 200 201 202
        203 204 205 206 207 208 209 210 211 212 213 214 215 216 217 218
        219 220 221 222 223 224 225 226 227 228 229 230 231 232 233 234
        235 236 237 238 239 240 241 242 243 244 245 246 247 248 249 250
        251 252 253 254 255 256 257 258 259 260 261 262 263 264 265 266
        267 268 269 270 271 272 273 274 275 276 277 278 279 280 281 282
        283 284 285 286 287 288 289 290 291 292 293 294 295 296 297 298
        299 300 301 302 303 304 305 306 307 308 309 310 311 312 313 314
        315 316 317 318 319 320 321 322 323 324 325 326 327 328 329 330
        331 332 333 334 335 336 337 338 339 340 341 342 343 344 345 346
        347 348 349 350 351 352 353 354 355 356 357 358 359 360 361 362
        363 364 365 366 367 368 369 370 371 372 373 374 375 376 377 378
        379 380 381 382 383 384 385 386 387 388 389 390 391 392 393 394
        395 396 397 398 399 400 401 402 403 404 405 406 407 408 409 410
        411 412 413 414 415 416 417 418 419 420 421 422 423 424 425 426
        427 428 429 430 431 432 433 434 435 436 437 438 439 440




  element sets:
    SET-BC:
      instance name: PART-1-1
      number of elements: 876
      elements: 
        37 82 106 137 214 297 358 363 399 417 455 462 472 545 665 688
        698 737 751 816 833 861 862 867 878 913 995 1004 1027 1084 1091
        1126 1138 1139 1149 1212 1257 1261 1477 1480 1484 1497 1503 1561
        1567 1568 1569 1574 1578 1583 1586 1587 1588 1590 1596 1598 1604
        1605 1608 1610 1613 1615 1619 1628 1636 1639 1641 1649 1664 1675
        1676 1682 1685 1693 1701 1704 1705 1706 1712 1713 1714 1721 1722
        1724 1728 1729 1731 1733 1734 1737 1738 1739 1741 1743 1744 1745
        1749 1750 1751 1754 1758 1759 1761 1762 1764 1769 1770 1771 1773
        1777 1778 1782 1783 1784 1785 1786 1788 1792 1793 1794 1796 1797
        1798 1799 1804 1805 1806 1811 1812 1814 1815 1816 1820 1822 1823
        1824 1829 1831 1834 1835 1838 1839 1840 1846 1852 1866 1871 1873
        1879 1883 1891 1902 1904 1909 1910 1911 1912 1913 1919 1922 1926
        1933 1934 1935 1938 1948 1956 1957 1958 1964 1972 1973 1974 1975
        1978 1981 1985 1986 1988 1992 1998 1999 2000 2001 2007 2011 2012
        2015 2021 2041 2050 2054 2055 2056 2068 2071 2081 2082 2087 2088
        2091 2092 2093 2096 2097 2098 2100 2101 2103 2106 2111 2112 2113
        2121 2124 2125 2127 2132 2133 2136 2140 2143 2144 2148 2149 2153
        2154 2156 2158 2159 2160 2181 2188 2193 2199 2201 2203 2204 2207
        2215 2217 2229 2234 2237 2242 2252 2274 2276 2277 2280 2281 2286
        2288 2292 2293 2294 2296 2297 2299 2304 2308 2309 2310 2311 2312
        2314 2315 2318 2319 2320 2321 2327 2328 2331 2332 2333 2334 2337
        2338 2340 2342 2343 2344 2348 2349 2354 2373 2376 2379 2380 2382
        2389 2394 2400 2403 2404 2416 2419 2420 2426 2436 2442 2444 2448
        2449 2456 2464 2465 2477 2478 2486 2494 2502 2506 2510 2513 2520
        2528 2532 2537 2539 2545 2546 2547 2548 2553 2555 2560 2562 2566
        2567 2578 2579 2581 2587 2600 2601 2606 2609 2610 2612 2623 2628
        2639 2644 2645 2646 2649 2651 2652 2653 2654 2657 2658 2660 2673
        2679 2685 2694 2695 2696 2701 2704 2705 2708 2711 2717 2718 2719
        2723 2725 2727 2728 2729 2730 2732 2733 2734 2736 2738 2739 2740
        2741 2742 2743 2744 2748 2749 2753 2759 2760 2761 2762 2763 2764
        2765 2767 2768 2773 2774 2775 2776 2782 2786 2791 2793 2800 2806
        2808 2811 2812 2813 2818 2819 2822 2829 2830 2832 2833 2835 2839
        2840 2841 2846 2847 2853 2854 2859 2862 2865 2869 2873 2876 2879
        2882 2884 2891 2898 2901 2902 2907 2909 2912 2913 2920 2923 2928
        2931 2932 2938 2949 2960 2962 2964 2968 2971 2977 2988 2991 2993
        2994 2995 3004 3008 3013 3019 3028 3032 3034 3040 3050 3055 3057
        3069 3071 3076 3078 3082 3085 3094 3101 3104 3108 3111 3113 3127
        3133 3135 3136 3139 3145 3146 3150 3151 3154 3156 3160 3166 3168
        3169 3170 3171 3177 3178 3179 3181 3182 3184 3188 3189 3193 3195
        3199 3204 3206 3207 3208 3211 3213 3216 3225 3228 3231 3232 3233
        3234 3235 3238 3241 3243 3246 3248 3249 3251 3264 3267 3271 3274
        3275 3278 3281 3292 3308 3310 3313 3319 3320 3324 3329 3333 3348
        3350 3352 3355 3361 3373 3392 3395 3396 3398 3402 3406 3411 3414
        3417 3420 3426 3433 3435 3437 3438 3439 3440 3447 3448 3453 3454
        3460 3462 3463 3467 3468 3471 3472 3473 3474 3478 3484 3489 3490
        3492 3498 3502 3506 3509 3517 3520 3525 3528 3529 3531 3532 3535
        3536 3544 3551 3557 3558 3561 3565 3572 3574 3579 3581 3583 3585
        3588 3598 3600 3601 3602 3609 3612 3614 3618 3622 3623 3627 3631
        3632 3635 3640 3642 3644 3648 3649 3652 3653 3658 3659 3660 3664
        3672 3673 3674 3678 3679 3680 3685 3687 3690 3695 3701 3704 3709
        3716 3717 3719 3722 3725 3726 3729 3730 3731 3734 3738 3739 3740
        3742 3743 3746 3749 3751 3754 3758 3763 3764 3765 3768 3770 3772
        3773 3774 3775 3780 3784 3786 3789 3790 3791 3796 3802 3803 3804
        3812 3818 3819 3821 3823 3824 3826 3828 3830 3831 3832 3833 3836
        3839 3840 3843 3844 3847 3850 3857 3858 3866 3873 3876 3879 3893
        3897 3900 3901 3905 3907 3913 3917 3919 3920 3921 3927 3928 3934
        3935 3941 3947 3950 3952 3956 3960 3961 3965 3966 3967 3968 3970
        3973 3974 3975 3981 3982 3983 3985 3991 3996 3998 4001 4003 4007
        4010 4011 4012 4018 4021 4026 4027 4028 4030 4031 4033 4036 4039
        4040 4045 4047 4048 4052 4055 4060 4065 4068 4073 4074 4075 4077
        4078 4079 4080 4081 4087 4089 4090 4091 4096 4097 4101 4109 4110
        4112 4113 4114 4115 4124 4125 4126 4128 4139 4141 4145 4146 4149
        4151 4157 4162 4164 4167 4168 4169 4174 4182 4184 4185 4186 4189
        4190 4191 4193 4194 4200 4214 4215 4216 4217 4223 4225 4227 4230
        4232 4236 4239 4243 4244 4248 4258 4259 4260 4263 4264 4268 4272
        4275 4282 4283 4287 4289 4291 4293 4296 4302 4303 4309 4310 4312
        4313 4316 4386 4436 4485 4507 4560 4563 4645 4715 4721 4770 4854




  Surfaces:

INSTANCE LEVEL
  node sets:
    Instance name: PART-1-1

  element sets:
    Instance name: PART-1-1

  Surfaces:

GLOBAL TO LOCAL NODE AND ELEMENT MAPS
  Global     Local      
  node       node       
  number     number     
                        Instance name                                   
   1          1         PART-1-1                                        
   2          2         PART-1-1                                        
   3          3         PART-1-1                                        
   4          4         PART-1-1                                        
   5          5         PART-1-1                                        
   6          6         PART-1-1                                        
   7          7         PART-1-1                                        
   8          8         PART-1-1                                        
   9          9         PART-1-1                                        
   10         10        PART-1-1                                        
   11         11        PART-1-1                                        
   12         12        PART-1-1                                        
   13         13        PART-1-1                                        
   14         14        PART-1-1                                        
   15         15        PART-1-1                                        
   16         16        PART-1-1                                        
   17         17        PART-1-1                                        
   18         18        PART-1-1                                        
   19         19        PART-1-1                                        
   20         20        PART-1-1                                        
   21         21        PART-1-1                                        
   22         22        PART-1-1                                        
   23         23        PART-1-1                                        
   24         24        PART-1-1                                        
   25         25        PART-1-1                                        
   26         26        PART-1-1                                        
   27         27        PART-1-1                                        
   28         28        PART-1-1                                        
   29         29        PART-1-1                                        
   30         30        PART-1-1                                        
   31         31        PART-1-1                                        
   32         32        PART-1-1                                        
   33         33        PART-1-1                                        
   34         34        PART-1-1                                        
   35         35        PART-1-1                                        
   36         36        PART-1-1                                        
   37         37        PART-1-1                                        
   38         38        PART-1-1                                        
   39         39        PART-1-1                                        
   40         40        PART-1-1                                        
   41         41        PART-1-1                                        
   42         42        PART-1-1                                        
   43         43        PART-1-1                                        
   44         44        PART-1-1                                        
   45         45        PART-1-1                                        
   46         46        PART-1-1                                        
   47         47        PART-1-1                                        
   48         48        PART-1-1                                        
   49         49        PART-1-1                                        
   50         50        PART-1-1                                        
   51         51        PART-1-1                                        
   52         52        PART-1-1                                        
   53         53        PART-1-1                                        
   54         54        PART-1-1                                        
   55         55        PART-1-1                                        
   56         56        PART-1-1                                        
   57         57        PART-1-1                                        
   58         58        PART-1-1                                        
   59         59        PART-1-1                                        
   60         60        PART-1-1                                        
   61         61        PART-1-1                                        
   62         62        PART-1-1                                        
   63         63        PART-1-1                                        
   64         64        PART-1-1                                        
   65         65        PART-1-1                                        
   66         66        PART-1-1                                        
   67         67        PART-1-1                                        
   68         68        PART-1-1                                        
   69         69        PART-1-1                                        
   70         70        PART-1-1                                        
   71         71        PART-1-1                                        
   72         72        PART-1-1                                        
   73         73        PART-1-1                                        
   74         74        PART-1-1                                        
   75         75        PART-1-1                                        
   76         76        PART-1-1                                        
   77         77        PART-1-1                                        
   78         78        PART-1-1                                        
   79         79        PART-1-1                                        
   80         80        PART-1-1                                        
   81         81        PART-1-1                                        
   82         82        PART-1-1                                        
   83         83        PART-1-1                                        
   84         84        PART-1-1                                        
   85         85        PART-1-1                                        
   86         86        PART-1-1                                        
   87         87        PART-1-1                                        
   88         88        PART-1-1                                        
   89         89        PART-1-1                                        
   90         90        PART-1-1                                        
   91         91        PART-1-1                                        
   92         92        PART-1-1                                        
   93         93        PART-1-1                                        
   94         94        PART-1-1                                        
   95         95        PART-1-1                                        
   96         96        PART-1-1                                        
   97         97        PART-1-1                                        
   98         98        PART-1-1                                        
   99         99        PART-1-1                                        
   100        100       PART-1-1                                        
   101        101       PART-1-1                                        
   102        102       PART-1-1                                        
   103        103       PART-1-1                                        
   104        104       PART-1-1                                        
   105        105       PART-1-1                                        
   106        106       PART-1-1                                        
   107        107       PART-1-1                                        
   108        108       PART-1-1                                        
   109        109       PART-1-1                                        
   110        110       PART-1-1                                        
   111        111       PART-1-1                                        
   112        112       PART-1-1                                        
   113        113       PART-1-1                                        
   114        114       PART-1-1                                        
   115        115       PART-1-1                                        
   116        116       PART-1-1                                        
   117        117       PART-1-1                                        
   118        118       PART-1-1                                        
   119        119       PART-1-1                                        
   120        120       PART-1-1                                        
   121        121       PART-1-1                                        
   122        122       PART-1-1                                        
   123        123       PART-1-1                                        
   124        124       PART-1-1                                        
   125        125       PART-1-1                                        
   126        126       PART-1-1                                        
   127        127       PART-1-1                                        
   128        128       PART-1-1                                        
   129        129       PART-1-1                                        
   130        130       PART-1-1                                        
   131        131       PART-1-1                                        
   132        132       PART-1-1                                        
   133        133       PART-1-1                                        
   134        134       PART-1-1                                        
   135        135       PART-1-1                                        
   136        136       PART-1-1                                        
   137        137       PART-1-1                                        
   138        138       PART-1-1                                        
   139        139       PART-1-1                                        
   140        140       PART-1-1                                        
   141        141       PART-1-1                                        
   142        142       PART-1-1                                        
   143        143       PART-1-1                                        
   144        144       PART-1-1                                        
   145        145       PART-1-1                                        
   146        146       PART-1-1                                        
   147        147       PART-1-1                                        
   148        148       PART-1-1                                        
   149        149       PART-1-1                                        
   150        150       PART-1-1                                        
   151        151       PART-1-1                                        
   152        152       PART-1-1                                        
   153        153       PART-1-1                                        
   154        154       PART-1-1                                        
   155        155       PART-1-1                                        
   156        156       PART-1-1                                        
   157        157       PART-1-1                                        
   158        158       PART-1-1                                        
   159        159       PART-1-1                                        
   160        160       PART-1-1                                        
   161        161       PART-1-1                                        
   162        162       PART-1-1                                        
   163        163       PART-1-1                                        
   164        164       PART-1-1                                        
   165        165       PART-1-1                                        
   166        166       PART-1-1                                        
   167        167       PART-1-1                                        
   168        168       PART-1-1                                        
   169        169       PART-1-1                                        
   170        170       PART-1-1                                        
   171        171       PART-1-1                                        
   172        172       PART-1-1                                        
   173        173       PART-1-1                                        
   174        174       PART-1-1                                        
   175        175       PART-1-1                                        
   176        176       PART-1-1                                        
   177        177       PART-1-1                                        
   178        178       PART-1-1                                        
   179        179       PART-1-1                                        
   180        180       PART-1-1                                        
   181        181       PART-1-1                                        
   182        182       PART-1-1                                        
   183        183       PART-1-1                                        
   184        184       PART-1-1                                        
   185        185       PART-1-1                                        
   186        186       PART-1-1                                        
   187        187       PART-1-1                                        
   188        188       PART-1-1                                        
   189        189       PART-1-1                                        
   190        190       PART-1-1                                        
   191        191       PART-1-1                                        
   192        192       PART-1-1                                        
   193        193       PART-1-1                                        
   194        194       PART-1-1                                        
   195        195       PART-1-1                                        
   196        196       PART-1-1                                        
   197        197       PART-1-1                                        
   198        198       PART-1-1                                        
   199        199       PART-1-1                                        
   200        200       PART-1-1                                        
   201        201       PART-1-1                                        
   202        202       PART-1-1                                        
   203        203       PART-1-1                                        
   204        204       PART-1-1                                        
   205        205       PART-1-1                                        
   206        206       PART-1-1                                        
   207        207       PART-1-1                                        
   208        208       PART-1-1                                        
   209        209       PART-1-1                                        
   210        210       PART-1-1                                        
   211        211       PART-1-1                                        
   212        212       PART-1-1                                        
   213        213       PART-1-1                                        
   214        214       PART-1-1                                        
   215        215       PART-1-1                                        
   216        216       PART-1-1                                        
   217        217       PART-1-1                                        
   218        218       PART-1-1                                        
   219        219       PART-1-1                                        
   220        220       PART-1-1                                        
   221        221       PART-1-1                                        
   222        222       PART-1-1                                        
   223        223       PART-1-1                                        
   224        224       PART-1-1                                        
   225        225       PART-1-1                                        
   226        226       PART-1-1                                        
   227        227       PART-1-1                                        
   228        228       PART-1-1                                        
   229        229       PART-1-1                                        
   230        230       PART-1-1                                        
   231        231       PART-1-1                                        
   232        232       PART-1-1                                        
   233        233       PART-1-1                                        
   234        234       PART-1-1                                        
   235        235       PART-1-1                                        
   236        236       PART-1-1                                        
   237        237       PART-1-1                                        
   238        238       PART-1-1                                        
   239        239       PART-1-1                                        
   240        240       PART-1-1                                        
   241        241       PART-1-1                                        
   242        242       PART-1-1                                        
   243        243       PART-1-1                                        
   244        244       PART-1-1                                        
   245        245       PART-1-1                                        
   246        246       PART-1-1                                        
   247        247       PART-1-1                                        
   248        248       PART-1-1                                        
   249        249       PART-1-1                                        
   250        250       PART-1-1                                        
   251        251       PART-1-1                                        
   252        252       PART-1-1                                        
   253        253       PART-1-1                                        
   254        254       PART-1-1                                        
   255        255       PART-1-1                                        
   256        256       PART-1-1                                        
   257        257       PART-1-1                                        
   258        258       PART-1-1                                        
   259        259       PART-1-1                                        
   260        260       PART-1-1                                        
   261        261       PART-1-1                                        
   262        262       PART-1-1                                        
   263        263       PART-1-1                                        
   264        264       PART-1-1                                        
   265        265       PART-1-1                                        
   266        266       PART-1-1                                        
   267        267       PART-1-1                                        
   268        268       PART-1-1                                        
   269        269       PART-1-1                                        
   270        270       PART-1-1                                        
   271        271       PART-1-1                                        
   272        272       PART-1-1                                        
   273        273       PART-1-1                                        
   274        274       PART-1-1                                        
   275        275       PART-1-1                                        
   276        276       PART-1-1                                        
   277        277       PART-1-1                                        
   278        278       PART-1-1                                        
   279        279       PART-1-1                                        
   280        280       PART-1-1                                        
   281        281       PART-1-1                                        
   282        282       PART-1-1                                        
   283        283       PART-1-1                                        
   284        284       PART-1-1                                        
   285        285       PART-1-1                                        
   286        286       PART-1-1                                        
   287        287       PART-1-1                                        
   288        288       PART-1-1                                        
   289        289       PART-1-1                                        
   290        290       PART-1-1                                        
   291        291       PART-1-1                                        
   292        292       PART-1-1                                        
   293        293       PART-1-1                                        
   294        294       PART-1-1                                        
   295        295       PART-1-1                                        
   296        296       PART-1-1                                        
   297        297       PART-1-1                                        
   298        298       PART-1-1                                        
   299        299       PART-1-1                                        
   300        300       PART-1-1                                        
   301        301       PART-1-1                                        
   302        302       PART-1-1                                        
   303        303       PART-1-1                                        
   304        304       PART-1-1                                        
   305        305       PART-1-1                                        
   306        306       PART-1-1                                        
   307        307       PART-1-1                                        
   308        308       PART-1-1                                        
   309        309       PART-1-1                                        
   310        310       PART-1-1                                        
   311        311       PART-1-1                                        
   312        312       PART-1-1                                        
   313        313       PART-1-1                                        
   314        314       PART-1-1                                        
   315        315       PART-1-1                                        
   316        316       PART-1-1                                        
   317        317       PART-1-1                                        
   318        318       PART-1-1                                        
   319        319       PART-1-1                                        
   320        320       PART-1-1                                        
   321        321       PART-1-1                                        
   322        322       PART-1-1                                        
   323        323       PART-1-1                                        
   324        324       PART-1-1                                        
   325        325       PART-1-1                                        
   326        326       PART-1-1                                        
   327        327       PART-1-1                                        
   328        328       PART-1-1                                        
   329        329       PART-1-1                                        
   330        330       PART-1-1                                        
   331        331       PART-1-1                                        
   332        332       PART-1-1                                        
   333        333       PART-1-1                                        
   334        334       PART-1-1                                        
   335        335       PART-1-1                                        
   336        336       PART-1-1                                        
   337        337       PART-1-1                                        
   338        338       PART-1-1                                        
   339        339       PART-1-1                                        
   340        340       PART-1-1                                        
   341        341       PART-1-1                                        
   342        342       PART-1-1                                        
   343        343       PART-1-1                                        
   344        344       PART-1-1                                        
   345        345       PART-1-1                                        
   346        346       PART-1-1                                        
   347        347       PART-1-1                                        
   348        348       PART-1-1                                        
   349        349       PART-1-1                                        
   350        350       PART-1-1                                        
   351        351       PART-1-1                                        
   352        352       PART-1-1                                        
   353        353       PART-1-1                                        
   354        354       PART-1-1                                        
   355        355       PART-1-1                                        
   356        356       PART-1-1                                        
   357        357       PART-1-1                                        
   358        358       PART-1-1                                        
   359        359       PART-1-1                                        
   360        360       PART-1-1                                        
   361        361       PART-1-1                                        
   362        362       PART-1-1                                        
   363        363       PART-1-1                                        
   364        364       PART-1-1                                        
   365        365       PART-1-1                                        
   366        366       PART-1-1                                        
   367        367       PART-1-1                                        
   368        368       PART-1-1                                        
   369        369       PART-1-1                                        
   370        370       PART-1-1                                        
   371        371       PART-1-1                                        
   372        372       PART-1-1                                        
   373        373       PART-1-1                                        
   374        374       PART-1-1                                        
   375        375       PART-1-1                                        
   376        376       PART-1-1                                        
   377        377       PART-1-1                                        
   378        378       PART-1-1                                        
   379        379       PART-1-1                                        
   380        380       PART-1-1                                        
   381        381       PART-1-1                                        
   382        382       PART-1-1                                        
   383        383       PART-1-1                                        
   384        384       PART-1-1                                        
   385        385       PART-1-1                                        
   386        386       PART-1-1                                        
   387        387       PART-1-1                                        
   388        388       PART-1-1                                        
   389        389       PART-1-1                                        
   390        390       PART-1-1                                        
   391        391       PART-1-1                                        
   392        392       PART-1-1                                        
   393        393       PART-1-1                                        
   394        394       PART-1-1                                        
   395        395       PART-1-1                                        
   396        396       PART-1-1                                        
   397        397       PART-1-1                                        
   398        398       PART-1-1                                        
   399        399       PART-1-1                                        
   400        400       PART-1-1                                        
   401        401       PART-1-1                                        
   402        402       PART-1-1                                        
   403        403       PART-1-1                                        
   404        404       PART-1-1                                        
   405        405       PART-1-1                                        
   406        406       PART-1-1                                        
   407        407       PART-1-1                                        
   408        408       PART-1-1                                        
   409        409       PART-1-1                                        
   410        410       PART-1-1                                        
   411        411       PART-1-1                                        
   412        412       PART-1-1                                        
   413        413       PART-1-1                                        
   414        414       PART-1-1                                        
   415        415       PART-1-1                                        
   416        416       PART-1-1                                        
   417        417       PART-1-1                                        
   418        418       PART-1-1                                        
   419        419       PART-1-1                                        
   420        420       PART-1-1                                        
   421        421       PART-1-1                                        
   422        422       PART-1-1                                        
   423        423       PART-1-1                                        
   424        424       PART-1-1                                        
   425        425       PART-1-1                                        
   426        426       PART-1-1                                        
   427        427       PART-1-1                                        
   428        428       PART-1-1                                        
   429        429       PART-1-1                                        
   430        430       PART-1-1                                        
   431        431       PART-1-1                                        
   432        432       PART-1-1                                        
   433        433       PART-1-1                                        
   434        434       PART-1-1                                        
   435        435       PART-1-1                                        
   436        436       PART-1-1                                        
   437        437       PART-1-1                                        
   438        438       PART-1-1                                        
   439        439       PART-1-1                                        
   440        440       PART-1-1                                        
   441        441       PART-1-1                                        
   442        442       PART-1-1                                        
   443        443       PART-1-1                                        
   444        444       PART-1-1                                        
   445        445       PART-1-1                                        
   446        446       PART-1-1                                        
   447        447       PART-1-1                                        
   448        448       PART-1-1                                        
   449        449       PART-1-1                                        
   450        450       PART-1-1                                        
   451        451       PART-1-1                                        
   452        452       PART-1-1                                        
   453        453       PART-1-1                                        
   454        454       PART-1-1                                        
   455        455       PART-1-1                                        
   456        456       PART-1-1                                        
   457        457       PART-1-1                                        
   458        458       PART-1-1                                        
   459        459       PART-1-1                                        
   460        460       PART-1-1                                        
   461        461       PART-1-1                                        
   462        462       PART-1-1                                        
   463        463       PART-1-1                                        
   464        464       PART-1-1                                        
   465        465       PART-1-1                                        
   466        466       PART-1-1                                        
   467        467       PART-1-1                                        
   468        468       PART-1-1                                        
   469        469       PART-1-1                                        
   470        470       PART-1-1                                        
   471        471       PART-1-1                                        
   472        472       PART-1-1                                        
   473        473       PART-1-1                                        
   474        474       PART-1-1                                        
   475        475       PART-1-1                                        
   476        476       PART-1-1                                        
   477        477       PART-1-1                                        
   478        478       PART-1-1                                        
   479        479       PART-1-1                                        
   480        480       PART-1-1                                        
   481        481       PART-1-1                                        
   482        482       PART-1-1                                        
   483        483       PART-1-1                                        
   484        484       PART-1-1                                        
   485        485       PART-1-1                                        
   486        486       PART-1-1                                        
   487        487       PART-1-1                                        
   488        488       PART-1-1                                        
   489        489       PART-1-1                                        
   490        490       PART-1-1                                        
   491        491       PART-1-1                                        
   492        492       PART-1-1                                        
   493        493       PART-1-1                                        
   494        494       PART-1-1                                        
   495        495       PART-1-1                                        
   496        496       PART-1-1                                        
   497        497       PART-1-1                                        
   498        498       PART-1-1                                        
   499        499       PART-1-1                                        
   500        500       PART-1-1                                        
   501        501       PART-1-1                                        
   502        502       PART-1-1                                        
   503        503       PART-1-1                                        
   504        504       PART-1-1                                        
   505        505       PART-1-1                                        
   506        506       PART-1-1                                        
   507        507       PART-1-1                                        
   508        508       PART-1-1                                        
   509        509       PART-1-1                                        
   510        510       PART-1-1                                        
   511        511       PART-1-1                                        
   512        512       PART-1-1                                        
   513        513       PART-1-1                                        
   514        514       PART-1-1                                        
   515        515       PART-1-1                                        
   516        516       PART-1-1                                        
   517        517       PART-1-1                                        
   518        518       PART-1-1                                        
   519        519       PART-1-1                                        
   520        520       PART-1-1                                        
   521        521       PART-1-1                                        
   522        522       PART-1-1                                        
   523        523       PART-1-1                                        
   524        524       PART-1-1                                        
   525        525       PART-1-1                                        
   526        526       PART-1-1                                        
   527        527       PART-1-1                                        
   528        528       PART-1-1                                        
   529        529       PART-1-1                                        
   530        530       PART-1-1                                        
   531        531       PART-1-1                                        
   532        532       PART-1-1                                        
   533        533       PART-1-1                                        
   534        534       PART-1-1                                        
   535        535       PART-1-1                                        
   536        536       PART-1-1                                        
   537        537       PART-1-1                                        
   538        538       PART-1-1                                        
   539        539       PART-1-1                                        
   540        540       PART-1-1                                        
   541        541       PART-1-1                                        
   542        542       PART-1-1                                        
   543        543       PART-1-1                                        
   544        544       PART-1-1                                        
   545        545       PART-1-1                                        
   546        546       PART-1-1                                        
   547        547       PART-1-1                                        
   548        548       PART-1-1                                        
   549        549       PART-1-1                                        
   550        550       PART-1-1                                        
   551        551       PART-1-1                                        
   552        552       PART-1-1                                        
   553        553       PART-1-1                                        
   554        554       PART-1-1                                        
   555        555       PART-1-1                                        
   556        556       PART-1-1                                        
   557        557       PART-1-1                                        
   558        558       PART-1-1                                        
   559        559       PART-1-1                                        
   560        560       PART-1-1                                        
   561        561       PART-1-1                                        
   562        562       PART-1-1                                        
   563        563       PART-1-1                                        
   564        564       PART-1-1                                        
   565        565       PART-1-1                                        
   566        566       PART-1-1                                        
   567        567       PART-1-1                                        
   568        568       PART-1-1                                        
   569        569       PART-1-1                                        
   570        570       PART-1-1                                        
   571        571       PART-1-1                                        
   572        572       PART-1-1                                        
   573        573       PART-1-1                                        
   574        574       PART-1-1                                        
   575        575       PART-1-1                                        
   576        576       PART-1-1                                        
   577        577       PART-1-1                                        
   578        578       PART-1-1                                        
   579        579       PART-1-1                                        
   580        580       PART-1-1                                        
   581        581       PART-1-1                                        
   582        582       PART-1-1                                        
   583        583       PART-1-1                                        
   584        584       PART-1-1                                        
   585        585       PART-1-1                                        
   586        586       PART-1-1                                        
   587        587       PART-1-1                                        
   588        588       PART-1-1                                        
   589        589       PART-1-1                                        
   590        590       PART-1-1                                        
   591        591       PART-1-1                                        
   592        592       PART-1-1                                        
   593        593       PART-1-1                                        
   594        594       PART-1-1                                        
   595        595       PART-1-1                                        
   596        596       PART-1-1                                        
   597        597       PART-1-1                                        
   598        598       PART-1-1                                        
   599        599       PART-1-1                                        
   600        600       PART-1-1                                        
   601        601       PART-1-1                                        
   602        602       PART-1-1                                        
   603        603       PART-1-1                                        
   604        604       PART-1-1                                        
   605        605       PART-1-1                                        
   606        606       PART-1-1                                        
   607        607       PART-1-1                                        
   608        608       PART-1-1                                        
   609        609       PART-1-1                                        
   610        610       PART-1-1                                        
   611        611       PART-1-1                                        
   612        612       PART-1-1                                        
   613        613       PART-1-1                                        
   614        614       PART-1-1                                        
   615        615       PART-1-1                                        
   616        616       PART-1-1                                        
   617        617       PART-1-1                                        
   618        618       PART-1-1                                        
   619        619       PART-1-1                                        
   620        620       PART-1-1                                        
   621        621       PART-1-1                                        
   622        622       PART-1-1                                        
   623        623       PART-1-1                                        
   624        624       PART-1-1                                        
   625        625       PART-1-1                                        
   626        626       PART-1-1                                        
   627        627       PART-1-1                                        
   628        628       PART-1-1                                        
   629        629       PART-1-1                                        
   630        630       PART-1-1                                        
   631        631       PART-1-1                                        
   632        632       PART-1-1                                        
   633        633       PART-1-1                                        
   634        634       PART-1-1                                        
   635        635       PART-1-1                                        
   636        636       PART-1-1                                        
   637        637       PART-1-1                                        
   638        638       PART-1-1                                        
   639        639       PART-1-1                                        
   640        640       PART-1-1                                        
   641        641       PART-1-1                                        
   642        642       PART-1-1                                        
   643        643       PART-1-1                                        
   644        644       PART-1-1                                        
   645        645       PART-1-1                                        
   646        646       PART-1-1                                        
   647        647       PART-1-1                                        
   648        648       PART-1-1                                        
   649        649       PART-1-1                                        
   650        650       PART-1-1                                        
   651        651       PART-1-1                                        
   652        652       PART-1-1                                        
   653        653       PART-1-1                                        
   654        654       PART-1-1                                        
   655        655       PART-1-1                                        
   656        656       PART-1-1                                        
   657        657       PART-1-1                                        
   658        658       PART-1-1                                        
   659        659       PART-1-1                                        
   660        660       PART-1-1                                        
   661        661       PART-1-1                                        
   662        662       PART-1-1                                        
   663        663       PART-1-1                                        
   664        664       PART-1-1                                        
   665        665       PART-1-1                                        
   666        666       PART-1-1                                        
   667        667       PART-1-1                                        
   668        668       PART-1-1                                        
   669        669       PART-1-1                                        
   670        670       PART-1-1                                        
   671        671       PART-1-1                                        
   672        672       PART-1-1                                        
   673        673       PART-1-1                                        
   674        674       PART-1-1                                        
   675        675       PART-1-1                                        
   676        676       PART-1-1                                        
   677        677       PART-1-1                                        
   678        678       PART-1-1                                        
   679        679       PART-1-1                                        
   680        680       PART-1-1                                        
   681        681       PART-1-1                                        
   682        682       PART-1-1                                        
   683        683       PART-1-1                                        
   684        684       PART-1-1                                        
   685        685       PART-1-1                                        
   686        686       PART-1-1                                        
   687        687       PART-1-1                                        
   688        688       PART-1-1                                        
   689        689       PART-1-1                                        
   690        690       PART-1-1                                        
   691        691       PART-1-1                                        
   692        692       PART-1-1                                        
   693        693       PART-1-1                                        
   694        694       PART-1-1                                        
   695        695       PART-1-1                                        
   696        696       PART-1-1                                        
   697        697       PART-1-1                                        
   698        698       PART-1-1                                        
   699        699       PART-1-1                                        
   700        700       PART-1-1                                        
   701        701       PART-1-1                                        
   702        702       PART-1-1                                        
   703        703       PART-1-1                                        
   704        704       PART-1-1                                        
   705        705       PART-1-1                                        
   706        706       PART-1-1                                        
   707        707       PART-1-1                                        
   708        708       PART-1-1                                        
   709        709       PART-1-1                                        
   710        710       PART-1-1                                        
   711        711       PART-1-1                                        
   712        712       PART-1-1                                        
   713        713       PART-1-1                                        
   714        714       PART-1-1                                        
   715        715       PART-1-1                                        
   716        716       PART-1-1                                        
   717        717       PART-1-1                                        
   718        718       PART-1-1                                        
   719        719       PART-1-1                                        
   720        720       PART-1-1                                        
   721        721       PART-1-1                                        
   722        722       PART-1-1                                        
   723        723       PART-1-1                                        
   724        724       PART-1-1                                        
   725        725       PART-1-1                                        
   726        726       PART-1-1                                        
   727        727       PART-1-1                                        
   728        728       PART-1-1                                        
   729        729       PART-1-1                                        
   730        730       PART-1-1                                        
   731        731       PART-1-1                                        
   732        732       PART-1-1                                        
   733        733       PART-1-1                                        
   734        734       PART-1-1                                        
   735        735       PART-1-1                                        
   736        736       PART-1-1                                        
   737        737       PART-1-1                                        
   738        738       PART-1-1                                        
   739        739       PART-1-1                                        
   740        740       PART-1-1                                        
   741        741       PART-1-1                                        
   742        742       PART-1-1                                        
   743        743       PART-1-1                                        
   744        744       PART-1-1                                        
   745        745       PART-1-1                                        
   746        746       PART-1-1                                        
   747        747       PART-1-1                                        
   748        748       PART-1-1                                        
   749        749       PART-1-1                                        
   750        750       PART-1-1                                        
   751        751       PART-1-1                                        
   752        752       PART-1-1                                        
   753        753       PART-1-1                                        
   754        754       PART-1-1                                        
   755        755       PART-1-1                                        
   756        756       PART-1-1                                        
   757        757       PART-1-1                                        
   758        758       PART-1-1                                        
   759        759       PART-1-1                                        
   760        760       PART-1-1                                        
   761        761       PART-1-1                                        
   762        762       PART-1-1                                        
   763        763       PART-1-1                                        
   764        764       PART-1-1                                        
   765        765       PART-1-1                                        
   766        766       PART-1-1                                        
   767        767       PART-1-1                                        
   768        768       PART-1-1                                        
   769        769       PART-1-1                                        
   770        770       PART-1-1                                        
   771        771       PART-1-1                                        
   772        772       PART-1-1                                        
   773        773       PART-1-1                                        
   774        774       PART-1-1                                        
   775        775       PART-1-1                                        
   776        776       PART-1-1                                        
   777        777       PART-1-1                                        
   778        778       PART-1-1                                        
   779        779       PART-1-1                                        
   780        780       PART-1-1                                        
   781        781       PART-1-1                                        
   782        782       PART-1-1                                        
   783        783       PART-1-1                                        
   784        784       PART-1-1                                        
   785        785       PART-1-1                                        
   786        786       PART-1-1                                        
   787        787       PART-1-1                                        
   788        788       PART-1-1                                        
   789        789       PART-1-1                                        
   790        790       PART-1-1                                        
   791        791       PART-1-1                                        
   792        792       PART-1-1                                        
   793        793       PART-1-1                                        
   794        794       PART-1-1                                        
   795        795       PART-1-1                                        
   796        796       PART-1-1                                        
   797        797       PART-1-1                                        
   798        798       PART-1-1                                        
   799        799       PART-1-1                                        
   800        800       PART-1-1                                        
   801        801       PART-1-1                                        
   802        802       PART-1-1                                        
   803        803       PART-1-1                                        
   804        804       PART-1-1                                        
   805        805       PART-1-1                                        
   806        806       PART-1-1                                        
   807        807       PART-1-1                                        
   808        808       PART-1-1                                        
   809        809       PART-1-1                                        
   810        810       PART-1-1                                        
   811        811       PART-1-1                                        
   812        812       PART-1-1                                        
   813        813       PART-1-1                                        
   814        814       PART-1-1                                        
   815        815       PART-1-1                                        
   816        816       PART-1-1                                        
   817        817       PART-1-1                                        
   818        818       PART-1-1                                        
   819        819       PART-1-1                                        
   820        820       PART-1-1                                        
   821        821       PART-1-1                                        
   822        822       PART-1-1                                        
   823        823       PART-1-1                                        
   824        824       PART-1-1                                        
   825        825       PART-1-1                                        
   826        826       PART-1-1                                        
   827        827       PART-1-1                                        
   828        828       PART-1-1                                        
   829        829       PART-1-1                                        
   830        830       PART-1-1                                        
   831        831       PART-1-1                                        
   832        832       PART-1-1                                        
   833        833       PART-1-1                                        
   834        834       PART-1-1                                        
   835        835       PART-1-1                                        
   836        836       PART-1-1                                        
   837        837       PART-1-1                                        
   838        838       PART-1-1                                        
   839        839       PART-1-1                                        
   840        840       PART-1-1                                        
   841        841       PART-1-1                                        
   842        842       PART-1-1                                        
   843        843       PART-1-1                                        
   844        844       PART-1-1                                        
   845        845       PART-1-1                                        
   846        846       PART-1-1                                        
   847        847       PART-1-1                                        
   848        848       PART-1-1                                        
   849        849       PART-1-1                                        
   850        850       PART-1-1                                        
   851        851       PART-1-1                                        
   852        852       PART-1-1                                        
   853        853       PART-1-1                                        
   854        854       PART-1-1                                        
   855        855       PART-1-1                                        
   856        856       PART-1-1                                        
   857        857       PART-1-1                                        
   858        858       PART-1-1                                        
   859        859       PART-1-1                                        
   860        860       PART-1-1                                        
   861        861       PART-1-1                                        
   862        862       PART-1-1                                        
   863        863       PART-1-1                                        
   864        864       PART-1-1                                        
   865        865       PART-1-1                                        
   866        866       PART-1-1                                        
   867        867       PART-1-1                                        
   868        868       PART-1-1                                        
   869        869       PART-1-1                                        
   870        870       PART-1-1                                        
   871        871       PART-1-1                                        
   872        872       PART-1-1                                        
   873        873       PART-1-1                                        
   874        874       PART-1-1                                        
   875        875       PART-1-1                                        
   876        876       PART-1-1                                        
   877        877       PART-1-1                                        
   878        878       PART-1-1                                        
   879        879       PART-1-1                                        
   880        880       PART-1-1                                        
   881        881       PART-1-1                                        
   882        882       PART-1-1                                        
   883        883       PART-1-1                                        
   884        884       PART-1-1                                        
   885        885       PART-1-1                                        
   886        886       PART-1-1                                        
   887        887       PART-1-1                                        
   888        888       PART-1-1                                        
   889        889       PART-1-1                                        
   890        890       PART-1-1                                        
   891        891       PART-1-1                                        
   892        892       PART-1-1                                        
   893        893       PART-1-1                                        
   894        894       PART-1-1                                        
   895        895       PART-1-1                                        
   896        896       PART-1-1                                        
   897        897       PART-1-1                                        
   898        898       PART-1-1                                        
   899        899       PART-1-1                                        
   900        900       PART-1-1                                        
   901        901       PART-1-1                                        
   902        902       PART-1-1                                        
   903        903       PART-1-1                                        
   904        904       PART-1-1                                        
   905        905       PART-1-1                                        
   906        906       PART-1-1                                        
   907        907       PART-1-1                                        
   908        908       PART-1-1                                        
   909        909       PART-1-1                                        
[...]
        4719        1.000       1.000       1.000      0.5000      3.9035E-07  0.5000      4.1370E-07 -1.4586E-07  1.5710E-07
        4720        1.000       1.000       1.000      0.5000     -3.4169E-07  0.5000     -5.7585E-07  1.3424E-07  1.2361E-06
        4721        1.000       1.000       1.000      0.5000     -8.4686E-06  0.5000     -3.2774E-06 -1.0700E-06  7.2524E-07
        4722        1.000       1.000       1.000      0.5000     -3.5237E-07  0.5000      1.2548E-07 -2.2587E-07 -6.5843E-07
        4723        1.000       1.000       1.000      0.5000      4.4842E-07  0.5000      4.2759E-07  2.5539E-07  5.6215E-08
        4724        1.000       1.000       1.000      0.5000     -8.7390E-07  0.5000      2.7290E-06  4.3487E-07 -3.9207E-08
        4725        1.000       1.000       1.000      0.5000      4.4224E-07  0.5000      3.9977E-08 -8.6026E-07  3.0110E-07
        4726        1.000       1.000       1.000      0.5000     -2.6620E-07  0.5000     -2.4764E-07  1.4789E-07  1.3369E-07
        4727        1.000       1.000       1.000      0.5000      2.6259E-07  0.5000     -7.2186E-07 -5.5147E-07  3.0435E-07
        4728        1.000       1.000       1.000      0.5000     -3.8259E-08  0.5000     -3.1742E-07 -4.4988E-07 -3.3167E-07
        4729        1.000       1.000       1.000      0.5000      6.0654E-07  0.5000      7.0301E-07  1.1605E-06  1.9150E-06
        4730        1.000       1.000       1.000      0.5000      4.5570E-06  0.5000      2.0709E-06 -4.5302E-07  6.5858E-07
        4731        1.000       1.000       1.000      0.5000      2.8026E-06  0.5000     -6.4507E-07 -7.5954E-07  1.3603E-06
        4732        1.000       1.000       1.000      0.5000     -1.1974E-07  0.5000     -1.0715E-07  2.6773E-09  3.3381E-07
        4733        1.000       1.000       1.000      0.5000      9.5599E-07  0.5000      1.3965E-07  1.0237E-07 -3.3083E-07
        4734        1.000       1.000       1.000      0.5000     -3.0088E-07  0.5000     -4.6576E-07  2.6861E-07 -3.3372E-07
        4735        1.000       1.000       1.000      0.5000     -2.4277E-07  0.5000     -1.0124E-07 -2.0610E-08 -1.7236E-07
        4736        1.000       1.000       1.000      0.5000     -1.6190E-06  0.5000      1.0940E-06 -3.4621E-07 -7.8526E-08
        4737        1.000       1.000       1.000      0.5000     -2.6161E-07  0.5000      1.4792E-07  1.0592E-07 -2.1101E-07
        4738        1.000       1.000       1.000      0.5000     -5.2465E-07  0.5000      1.9242E-07  3.5656E-08 -3.9043E-07
        4739        1.000       1.000       1.000      0.5000     -6.8702E-07  0.5000      8.4598E-07 -2.7258E-07  1.5860E-07
        4740        1.000       1.000       1.000      0.5000      6.4914E-09  0.5000     -7.9126E-07  5.0403E-07 -2.3514E-07
        4741        1.000       1.000       1.000      0.5000      1.8109E-07  0.5000      4.0229E-07  8.9597E-08 -2.8446E-07
        4742        1.000       1.000       1.000      0.5000      1.0193E-06  0.5000     -6.2849E-09  6.8268E-07  1.1731E-06
        4743        1.000       1.000       1.000      0.5000      1.6415E-07  0.5000      1.8996E-06  1.0539E-06 -1.1833E-06
        4744        1.000       1.000       1.000      0.5000     -1.3276E-06  0.5000      1.5263E-06  1.7814E-06  2.0160E-06
        4745        1.000       1.000       1.000      0.5000     -3.6597E-07  0.5000     -3.2150E-07 -5.3781E-07 -1.0645E-06
        4746        1.000       1.000       1.000      0.5000     -8.3659E-07  0.5000     -1.7763E-06  1.1352E-06 -4.0138E-07
        4747        1.000       1.000       1.000      0.5000     -9.9782E-07  0.5000      1.2510E-06  1.2941E-06  8.8555E-07
        4748        1.000       1.000       1.000      0.5000      1.0463E-06  0.5000     -1.8205E-07 -6.9551E-07 -9.9966E-08
        4749        1.000       1.000       1.000      0.5000      3.9548E-06  0.5000     -2.7987E-07 -9.0841E-07 -5.0730E-07
        4750        1.000       1.000       1.000      0.5000     -3.2343E-07  0.5000     -8.2337E-07  3.5563E-07  1.5637E-08
        4751        1.000       1.000       1.000      0.5000      8.4867E-07  0.5000      1.0200E-07  5.0518E-07 -1.9703E-07
        4752        1.000       1.000       1.000      0.5000     -5.5360E-06  0.5000      1.1922E-07  1.4690E-07 -5.9582E-09
        4753        1.000       1.000       1.000      0.5000     -1.5926E-07  0.5000     -8.3307E-08 -1.0070E-06 -2.3815E-07
        4754        1.000       1.000       1.000      0.5000      5.1766E-06  0.5000     -3.2673E-07 -6.0378E-07  1.4819E-07
        4755        1.000       1.000       1.000      0.5000     -5.8801E-07  0.5000      1.0821E-06  8.6971E-08  4.7997E-06
        4756        1.000       1.000       1.000      0.5000     -9.1706E-09  0.5000      2.0831E-07  5.6534E-07 -2.4879E-07
        4757        1.000       1.000       1.000      0.5000      2.4188E-06  0.5000     -3.4213E-06 -1.4893E-07  5.4693E-09
        4758        1.000       1.000       1.000      0.5000      1.8023E-06  0.5000     -5.5635E-07  3.8011E-07 -1.7668E-07
        4759        1.000       1.000       1.000      0.5000      3.9596E-06  0.5000     -3.6300E-07 -6.1976E-07  5.9669E-07
        4760        1.000       1.000       1.000      0.5000     -1.6159E-06  0.5000     -1.0967E-06 -9.5137E-07 -7.3875E-08
        4761        1.000       1.000       1.000      0.5000      2.1736E-08  0.5000     -4.2880E-08 -1.5923E-07  1.4865E-07
        4762        1.000       1.000       1.000      0.5000     -2.7957E-06  0.5000      1.3583E-06 -7.8909E-08 -9.1972E-07
        4763        1.000       1.000       1.000      0.5000     -6.9408E-07  0.5000     -8.5447E-08  5.5828E-09  8.0093E-08
        4764        1.000       1.000       1.000      0.5000      3.4055E-08  0.5000     -6.6314E-08 -3.4678E-07  1.7023E-07
        4765        1.000       1.000       1.000      0.5000      5.2347E-07  0.5000     -2.0477E-07  9.8602E-07 -5.1385E-07
        4766        1.000       1.000       1.000      0.5000     -2.0847E-06  0.5000     -1.7730E-06 -1.4105E-06  4.3016E-06
        4767        1.000       1.000       1.000      0.5000      3.3236E-06  0.5000     -1.0681E-05 -6.5554E-08  2.0445E-06
        4768        1.000       1.000       1.000      0.5000     -4.2412E-07  0.5000      1.3906E-07 -7.8282E-07  2.0421E-07
        4769        1.000       1.000       1.000      0.5000     -2.0136E-06  0.5000      1.0215E-06  2.2155E-06 -3.0766E-07
        4770        1.000       1.000       1.000      0.5000     -7.1772E-06  0.5000      1.0255E-06  4.6553E-07 -8.0117E-07
        4771        1.000       1.000       1.000      0.5000     -4.0397E-06  0.5000      1.6635E-07  1.5656E-06 -2.5175E-06
        4772        1.000       1.000       1.000      0.5000      5.7591E-06  0.5000     -2.0923E-06 -3.5133E-06 -1.9228E-06
        4773        1.000       1.000       1.000      0.5000     -2.4023E-06  0.5000     -2.6129E-07 -2.8495E-06  8.6868E-07
        4774        1.000       1.000       1.000      0.5000      4.5551E-07  0.5000     -4.8997E-07 -3.1986E-06 -1.8429E-06
        4775        1.000       1.000       1.000      0.5000      3.9220E-06  0.5000      1.0997E-05 -2.4590E-07  8.2881E-07
        4776        1.000       1.000       1.000      0.5000      3.1710E-07  0.5000     -1.0510E-06 -4.9849E-07  4.2841E-07
        4777        1.000       1.000       1.000      0.5000      1.2112E-06  0.5000      1.3881E-06 -1.8124E-07 -5.6066E-07
        4778        1.000       1.000       1.000      0.5000      9.6116E-07  0.5000     -8.0175E-07  8.0036E-07 -8.9306E-08
        4779        1.000       1.000       1.000      0.5000     -1.6263E-06  0.5000      3.1071E-06 -4.7342E-07 -5.2542E-08
        4780        1.000       1.000       1.000      0.5000     -8.7102E-07  0.5000     -7.4827E-07 -1.3418E-07  1.4523E-07
        4781        1.000       1.000       1.000      0.5000     -3.5641E-07  0.5000      5.4050E-07 -2.0445E-07  1.9665E-06
        4782        1.000       1.000       1.000      0.5000      9.2104E-07  0.5000     -5.7194E-07  6.8392E-07 -1.0030E-06
        4783        1.000       1.000       1.000      0.5000      2.4364E-07  0.5000     -2.3921E-07  9.0523E-07  7.7895E-08
        4784        1.000       1.000       1.000      0.5000     -1.1293E-06  0.5000     -8.8305E-06  8.4748E-08  2.2132E-07
        4785        1.000       1.000       1.000      0.5000      3.0741E-07  0.5000     -4.9589E-07 -3.6133E-07  1.7407E-07
        4786        1.000       1.000       1.000      0.5000      3.1121E-06  0.5000      2.4347E-07  5.4062E-07 -1.6235E-07
        4787        1.000       1.000       1.000      0.5000      5.9938E-07  0.5000     -1.8907E-07  1.5042E-07  8.4095E-09
        4788        1.000       1.000       1.000      0.5000      5.7403E-07  0.5000     -2.4681E-07  1.1625E-07  1.5950E-07
        4789        1.000       1.000       1.000      0.5000     -1.6771E-06  0.5000     -2.4052E-07 -7.9267E-07 -8.9052E-07
        4790        1.000       1.000       1.000      0.5000      2.0724E-06  0.5000      2.6215E-07  1.3194E-06  2.8353E-06
        4791        1.000       1.000       1.000      0.5000     -7.1464E-08  0.5000     -2.4230E-07 -3.9694E-07 -4.4311E-09
        4792        1.000       1.000       1.000      0.5000     -1.2252E-06  0.5000     -4.2573E-08 -3.2845E-07 -8.8385E-07
        4793        1.000       1.000       1.000      0.5000      1.8530E-07  0.5000      1.6442E-07  6.0603E-07 -5.2073E-08
        4794        1.000       1.000       1.000      0.5000     -2.6128E-08  0.5000     -4.6108E-07  1.1223E-07  3.1512E-07
        4795        1.000       1.000       1.000      0.5000      3.3229E-07  0.5000      4.6324E-07 -2.0042E-07 -1.9362E-06
        4796        1.000       1.000       1.000      0.5000      1.1310E-06  0.5000      8.6006E-07  2.8985E-07  1.0761E-06
        4797        1.000       1.000       1.000      0.5000      1.2557E-06  0.5000     -1.9851E-06 -3.0843E-07 -4.2797E-07
        4798        1.000       1.000       1.000      0.5000     -1.6128E-06  0.5000     -6.7039E-07  8.6949E-07  4.2045E-07
        4799        1.000       1.000       1.000      0.5000     -1.9621E-07  0.5000     -1.2963E-06 -8.2671E-09  2.5397E-07
        4800        1.000       1.000       1.000      0.5000     -1.5460E-07  0.5000      1.7880E-07  1.9016E-07  2.6378E-07
        4801        1.000       1.000       1.000      0.5000     -9.1252E-07  0.5000     -6.7301E-06  1.2797E-06 -6.7091E-07
        4802        1.000       1.000       1.000      0.5000      2.9996E-07  0.5000     -2.2365E-06  5.8274E-07  4.2505E-08
        4803        1.000       1.000       1.000      0.5000     -8.0784E-07  0.5000      3.3345E-06  1.8451E-06  4.5165E-07
        4804        1.000       1.000       1.000      0.5000      5.0745E-07  0.5000      1.0851E-06  6.6851E-08 -5.3010E-07
        4805        1.000       1.000       1.000      0.5000     -3.9744E-07  0.5000      1.0799E-06 -6.8165E-07 -2.2749E-06
        4806        1.000       1.000       1.000      0.5000     -2.6516E-07  0.5000      2.0763E-07  7.8900E-10 -1.5538E-07
        4807        1.000       1.000       1.000      0.5000      2.2109E-06  0.5000     -2.0476E-06  9.7394E-07  4.6012E-07
        4808        1.000       1.000       1.000      0.5000      1.4372E-06  0.5000      2.8498E-07 -1.5066E-06  1.3449E-07
        4809        1.000       1.000       1.000      0.5000     -4.6630E-07  0.5000      2.0886E-06  1.0542E-07 -1.3129E-07
        4810        1.000       1.000       1.000      0.5000      1.2287E-06  0.5000      9.8340E-07 -6.9737E-08 -5.5059E-07
        4811        1.000       1.000       1.000      0.5000      4.0375E-07  0.5000     -7.0593E-08 -2.4602E-07  1.2694E-06
        4812        1.000       1.000       1.000      0.5000      6.5423E-08  0.5000     -6.3400E-07 -4.0501E-07 -9.4373E-07
        4813        1.000       1.000       1.000      0.5000      5.0067E-07  0.5000     -6.2624E-07 -1.4047E-06 -4.4254E-07
        4814        1.000       1.000       1.000      0.5000     -6.2988E-07  0.5000      1.6108E-06 -5.6127E-08 -1.2493E-06
        4815        1.000       1.000       1.000      0.5000      1.1361E-06  0.5000     -8.1476E-06 -9.7264E-08 -6.2766E-08
        4816        1.000       1.000       1.000      0.5000     -1.0667E-07  0.5000     -1.7278E-06 -6.9355E-07  4.9704E-07
        4817        1.000       1.000       1.000      0.5000     -5.8688E-07  0.5000     -8.7700E-07 -8.3056E-07 -4.3104E-07
        4818        1.000       1.000       1.000      0.5000     -6.6837E-07  0.5000     -2.7838E-07 -2.8615E-07 -6.0429E-07
        4819        1.000       1.000       1.000      0.5000      5.7300E-07  0.5000      3.3585E-07  2.5773E-07 -2.2372E-07
        4820        1.000       1.000       1.000      0.5000     -1.1941E-06  0.5000      6.7077E-06  3.7984E-07 -3.3005E-07
        4821        1.000       1.000       1.000      0.5000      3.4868E-06  0.5000      1.2527E-07  2.4280E-07 -2.5361E-07
        4822        1.000       1.000       1.000      0.5000     -8.4851E-07  0.5000     -5.8110E-07 -7.8964E-07 -2.8140E-06
        4823        1.000       1.000       1.000      0.5000      5.1299E-07  0.5000     -1.2981E-06  7.9774E-07 -1.9550E-07
        4824        1.000       1.000       1.000      0.5000     -1.3761E-06  0.5000     -6.5755E-07  2.3601E-07  6.8533E-08
        4825        1.000       1.000       1.000      0.5000     -1.3233E-06  0.5000     -2.9175E-07  1.1279E-07 -1.5627E-07
        4826        1.000       1.000       1.000      0.5000      2.0259E-08  0.5000      1.2721E-06 -4.5660E-07  2.1439E-08
        4827        1.000       1.000       1.000      0.5000      1.9670E-07  0.5000      1.2530E-06 -6.0776E-07 -9.6005E-08
        4828        1.000       1.000       1.000      0.5000     -7.3095E-07  0.5000      1.3730E-06 -4.2561E-07 -3.1511E-08
        4829        1.000       1.000       1.000      0.5000     -6.5573E-07  0.5000      5.1252E-07 -5.5215E-08 -5.5589E-07
        4830        1.000       1.000       1.000      0.5000      3.5584E-07  0.5000     -4.2152E-07 -3.0630E-07  1.5727E-07
        4831        1.000       1.000       1.000      0.5000     -6.3566E-07  0.5000      1.6775E-07 -1.4166E-07  1.1863E-06
        4832        1.000       1.000       1.000      0.5000     -3.6516E-06  0.5000      8.9349E-07  2.0831E-07 -1.3406E-06
        4833        1.000       1.000       1.000      0.5000      4.2563E-06  0.5000     -2.0800E-06  7.9788E-07 -2.2001E-07
        4834        1.000       1.000       1.000      0.5000     -6.2498E-07  0.5000     -3.0132E-07  1.0927E-07  6.2611E-07
        4835        1.000       1.000       1.000      0.5000      1.5455E-06  0.5000     -9.7603E-07 -1.5814E-06 -3.4959E-07
        4836        1.000       1.000       1.000      0.5000      1.2025E-07  0.5000     -7.0112E-10  2.1381E-07  3.4607E-07
        4837        1.000       1.000       1.000      0.5000      1.2597E-07  0.5000     -1.1746E-07 -1.7981E-07  2.2472E-07
        4838        1.000       1.000       1.000      0.5000     -7.6791E-07  0.5000     -7.9053E-07  3.5213E-07 -4.7683E-08
        4839        1.000       1.000       1.000      0.5000      2.4594E-06  0.5000     -3.1618E-07 -1.6039E-07 -9.1455E-09
        4840        1.000       1.000       1.000      0.5000     -3.4785E-07  0.5000      2.3731E-06  2.6725E-06 -1.1587E-08
        4841        1.000       1.000       1.000      0.5000     -1.1532E-06  0.5000      1.0462E-06  2.1404E-06  2.0294E-06
        4842        1.000       1.000       1.000      0.5000      6.3382E-07  0.5000     -1.7758E-06  1.0577E-06 -2.6615E-07
        4843        1.000       1.000       1.000      0.5000      9.5774E-07  0.5000      2.5417E-07  1.8828E-07  8.1598E-07
        4844        1.000       1.000       1.000      0.5000     -5.7104E-07  0.5000     -1.2174E-07 -5.2975E-07  2.4066E-07
        4845        1.000       1.000       1.000      0.5000      6.6720E-07  0.5000     -1.2074E-08  6.7881E-07  1.4788E-06
        4846        1.000       1.000       1.000      0.5000      6.2170E-07  0.5000     -6.2178E-06 -1.2736E-06 -1.6807E-07
        4847        1.000       1.000       1.000      0.5000      1.3690E-06  0.5000      4.5274E-07  4.4734E-07 -1.9859E-06
        4848        1.000       1.000       1.000      0.5000     -3.5661E-07  0.5000     -1.6356E-07 -3.4498E-07  1.4959E-07
        4849        1.000       1.000       1.000      0.5000     -1.7900E-07  0.5000     -2.7912E-06  1.1475E-06 -2.0403E-07
        4850        1.000       1.000       1.000      0.5000      1.4958E-07  0.5000      7.6714E-07 -1.7073E-07  5.0013E-07
        4851        1.000       1.000       1.000      0.5000      3.9717E-08  0.5000     -1.3236E-06  7.4386E-07  2.8111E-07
        4852        1.000       1.000       1.000      0.5000     -1.1492E-06  0.5000      5.4405E-07  2.5627E-07  7.0126E-08
        4853        1.000       1.000       1.000      0.5000      3.3042E-08  0.5000     -2.6152E-08  8.1481E-07  5.9201E-07
        4854        1.000       1.000       1.000      0.5000      2.7828E-07  0.5000     -3.8194E-06  4.0932E-07 -1.5682E-07
        4855        1.000       1.000       1.000      0.5000      1.3423E-06  0.5000     -1.0603E-06 -5.6918E-07  3.6165E-07
        4856        1.000       1.000       1.000      0.5000     -2.0656E-06  0.5000     -3.2422E-08 -3.3448E-06  2.8437E-06
        4857        1.000       1.000       1.000      0.5000     -4.9676E-06  0.5000     -5.5033E-06 -7.7607E-07  1.9418E-06
        4858        1.000       1.000       1.000      0.5000     -5.5189E-07  0.5000     -4.3074E-07 -8.5859E-07  2.4240E-06
        4859        1.000       1.000       1.000      0.5000     -1.5376E-06  0.5000      9.8706E-06  3.8475E-07 -5.2521E-07
        4860        1.000       1.000       1.000      0.5000     -1.5415E-06  0.5000      7.3798E-06  2.3906E-06  3.2802E-07
        4861        1.000       1.000       1.000      0.5000     -2.1878E-07  0.5000      1.1977E-07  1.5456E-07  2.7031E-08
        4862        1.000       1.000       1.000      0.5000     -3.6001E-08  0.5000     -1.7018E-07 -2.6637E-07  9.3901E-08
        4863        1.000       1.000       1.000      0.5000      4.4227E-07  0.5000     -1.5156E-07 -1.7747E-07  7.3145E-08
        4864        1.000       1.000       1.000      0.5000      9.3090E-07  0.5000     -4.9070E-07  9.4409E-09 -1.0726E-07
        4865        1.000       1.000       1.000      0.5000     -1.8634E-06  0.5000      1.8168E-07  3.1814E-07 -7.7383E-08
        4866        1.000       1.000       1.000      0.5000      7.1658E-07  0.5000     -6.0479E-06  1.2381E-06 -4.7862E-07
        4867        1.000       1.000       1.000      0.5000     -4.1341E-07  0.5000      4.6119E-08 -3.6146E-07 -2.1585E-06
        4868        1.000       1.000       1.000      0.5000     -8.4753E-07  0.5000      4.0165E-06  1.4747E-06  9.2523E-07
        4869        1.000       1.000       1.000      0.5000      3.8617E-07  0.5000     -5.0727E-07 -1.5900E-07 -6.9844E-07

 MAXIMUM           1.000       1.000       1.000      0.5000      2.7609E-05  0.5000      1.8100E-05  3.7618E-06  4.7997E-06
 ELEMENT               3241        1871        1843        1567        3927        3489        3848        4638        4755 

 MINIMUM           1.000       1.000       1.000      0.5000     -1.5704E-05  0.5000     -1.4366E-05 -4.5540E-06 -3.8382E-06
 ELEMENT               2811         665        3727        1871        4576        4018        3561        4616        2647 


          THE ANALYSIS HAS BEEN COMPLETED



                              ANALYSIS COMPLETE
                              WITH     11 WARNING MESSAGES ON THE DAT FILE



     JOB TIME SUMMARY
       USER TIME (SEC)      =  0.50000    
       SYSTEM TIME (SEC)    =  0.10000    
       TOTAL CPU TIME (SEC) =  0.60000    
       WALLCLOCK TIME (SEC) =          1
