*Heading
** Job name: squarePlateFine_right-unit-parabola Model name: squarePlate
** Generated by: Abaqus/CAE Unofficial Packaging Version
*Preprint, echo=NO, model=NO, history=NO, contact=NO
**
** PARTS
**
*Part, name=Part-1
*Node
      1,        0.125,        0.125
      2,  0.118749999,        0.125
      3,  0.112499997,        0.125
      4,  0.106250003,        0.125
      5,  0.100000001,        0.125
      6,      0.09375,        0.125
      7, 0.0874999985,        0.125
      8,  0.081249997,        0.125
      9,  0.075000003,        0.125
     10, 0.0687500015,        0.125
     11,       0.0625,        0.125
     12, 0.0562499985,        0.125
     13, 0.0500000007,        0.125
     14, 0.0437499993,        0.125
     15, 0.0375000015,        0.125
     16,      0.03125,        0.125
     17, 0.0250000004,        0.125
     18, 0.0187500007,        0.125
     19, 0.0125000002,        0.125
     20, 0.00625000009,        0.125
** ... 1661 like lines cut
*Element, type=CPS4
   1,    1,    2,   43,   42
   2,    2,    3,   44,   43
   3,    3,    4,   45,   44
   4,    4,    5,   46,   45
   5,    5,    6,   47,   46
   6,    6,    7,   48,   47
   7,    7,    8,   49,   48
   8,    8,    9,   50,   49
   9,    9,   10,   51,   50
  10,   10,   11,   52,   51
  11,   11,   12,   53,   52
  12,   12,   13,   54,   53
  13,   13,   14,   55,   54
  14,   14,   15,   56,   55
  15,   15,   16,   57,   56
  16,   16,   17,   58,   57
  17,   17,   18,   59,   58
  18,   18,   19,   60,   59
  19,   19,   20,   61,   60
  20,   20,   21,   62,   61
** ... 1580 like lines cut
*Nset, nset=_PickedSet4, internal, generate
    1,  1681,     1
*Elset, elset=_PickedSet4, internal, generate
    1,  1600,     1
** Section: Section-1
*Solid Section, elset=_PickedSet4, material=Neo-Hookean
,
*End Part
**  
**
** ASSEMBLY
**
*Assembly, name=Assembly
**  
*Instance, name=Part-1-1, part=Part-1
*End Instance
**  
*Nset, nset=_PickedSet4, internal, instance=Part-1-1, generate
   41,  1681,    41
*Elset, elset=_PickedSet4, internal, instance=Part-1-1, generate
   40,  1600,    40
*Nset, nset=_PickedSet5, internal, instance=Part-1-1, generate
    1,  1641,    41
*Elset, elset=_PickedSet5, internal, instance=Part-1-1, generate
    1,  1561,    40
*End Assembly
** 
** MATERIALS
** 
*Material, name=Neo-Hookean
*Hyperelastic, neo hooke
 3.44828e+08, 3e-10
** ----------------------------------------------------------------
** 
** STEP: Step-1
** 
*Step, name=Step-1, nlgeom=YES
*Static
1., 1., 1e-05, 1.
** 
** BOUNDARY CONDITIONS
** 
** Name: Fix left Type: Symmetry/Antisymmetry/Encastre
*Boundary
_PickedSet4, ENCASTRE
** Name: pull right corners Type: Displacement/Rotation Using Analytical Field: parabola
*Boundary
Part-1-1.1, 1, 1, 0.015625
Part-1-1.42, 1, 1, 0.0141016
Part-1-1.83, 1, 1, 0.0126562
Part-1-1.124, 1, 1, 0.0112891
Part-1-1.165, 1, 1, 0.01
Part-1-1.206, 1, 1, 0.00878906
Part-1-1.247, 1, 1, 0.00765625
Part-1-1.288, 1, 1, 0.00660156
Part-1-1.329, 1, 1, 0.005625
Part-1-1.370, 1, 1, 0.00472656
Part-1-1.411, 1, 1, 0.00390625
Part-1-1.452, 1, 1, 0.00316406
Part-1-1.493, 1, 1, 0.0025
Part-1-1.534, 1, 1, 0.00191406
Part-1-1.575, 1, 1, 0.00140625
Part-1-1.616, 1, 1, 0.000976563
Part-1-1.657, 1, 1, 0.000625
Part-1-1.698, 1, 1, 0.000351563
Part-1-1.739, 1, 1, 0.00015625
Part-1-1.780, 1, 1, 3.90625e-05
** ... 103 like lines cut
** 
** OUTPUT REQUESTS
** 
*Restart, write, frequency=0
** 
** FIELD OUTPUT: F-Output-1
** 
*Output, field
*Node Output
CF, RF, U, UR
*Element Output, directions=NO
LE, PE, PEEQ, PEMAG, S, STH
*EL PRINT, POSITION=AVERAGED AT NODES
DG
** 
** HISTORY OUTPUT: H-Output-1
** 
*Output, history, variable=PRESELECT
*End Step
