*Heading
** Job name: SolidSphereSmall_Z Model name: SolidSphereSmall
** Generated by: Abaqus/CAE 6.14-1
*Preprint, echo=NO, model=NO, history=NO, contact=NO
**
** PARTS
**
*Part, name=Part-1
*Node
      1,   3.18955302,  -3.18421936,           0.
      2,   2.50627255,  -3.74581075,           0.
      3,   1.72647297,  -4.16314697,           0.
      4,  0.880184948,  -4.42015553,           0.
      5,         3.75,         -2.5,           0.
      6,           0.,  -4.50693893,           0.
      7,  0.806431592,    4.4342041,           0.
      8,   1.58683407,   4.21834755,           0.
      9,   2.97044969,   3.38953209,           0.
     10,    3.5290041,    2.8033247,           0.
     11,   3.97365379,   2.12663484,           0.
     12,   4.29004669,   1.38130426,           0.
     13,   4.46797037,  0.591389477,           0.
     14,   4.39009476,  -1.01959252,           0.
     15,   4.13680887,  -1.78866243,           0.
     16,           0.,   4.50693893,           0.
     17,  -3.78412342, -0.0291125383,  -2.44786882
     18,  -4.16907072,  -0.23668097,   -1.6956805
     19,    -4.364645, -0.108469129,  -1.11830664
     20,  -4.49063349, -0.0368270092,  -0.38125506
** ... 1028 like lines cut
*Element, type=C3D4
   1,  441,  442,  443,  444
   2,  441,  443,  445,  444
   3,  441,  446,  447,  448
   4,  449,  450,  451,  452
   5,  449,  453,  454,  455
   6,  449,  456,  453,  455
   7,  449,  456,  455,  457
   8,  458,  459,  460,  461
   9,  441,  442,  462,  458
  10,  459,  463,  458,  447
  11,  441,  464,  465,  444
  12,  442,  465,  444,  441
  13,  444,  442,  443,  466
  14,  465,  467,  468,  469
  15,  465,  468,  467,  466
  16,  465,  464,  470,  444
  17,  465,  462,  469,  471
  18,  472,  473,  474,  475
  19,  476,  477,  478,  472
  20,  479,  480,  481,  482
** ... 4849 like lines cut
*Nset, nset=_PickedSet10, internal, generate
    1,  1048,     1
*Elset, elset=_PickedSet10, internal, generate
    1,  4869,     1
** Section: Section-1
*Solid Section, elset=_PickedSet10, material=Material-1
,
*End Part
**  
**
** ASSEMBLY
**
*Assembly, name=Assembly
**  
*Instance, name=Part-1-1, part=Part-1
*End Instance
**  
*Nset, nset=Set-bc, instance=Part-1-1, generate
   1,  440,    1
*Elset, elset=Set-bc, instance=Part-1-1
   37,   82,  106,  137,  214,  297,  358,  363,  399,  417,  455,  462,  472,  545,  665,  688
  698,  737,  751,  816,  833,  861,  862,  867,  878,  913,  995, 1004, 1027, 1084, 1091, 1126
 1138, 1139, 1149, 1212, 1257, 1261, 1477, 1480, 1484, 1497, 1503, 1561, 1567, 1568, 1569, 1574
 1578, 1583, 1586, 1587, 1588, 1590, 1596, 1598, 1604, 1605, 1608, 1610, 1613, 1615, 1619, 1628
 1636, 1639, 1641, 1649, 1664, 1675, 1676, 1682, 1685, 1693, 1701, 1704, 1705, 1706, 1712, 1713
 1714, 1721, 1722, 1724, 1728, 1729, 1731, 1733, 1734, 1737, 1738, 1739, 1741, 1743, 1744, 1745
 1749, 1750, 1751, 1754, 1758, 1759, 1761, 1762, 1764, 1769, 1770, 1771, 1773, 1777, 1778, 1782
 1783, 1784, 1785, 1786, 1788, 1792, 1793, 1794, 1796, 1797, 1798, 1799, 1804, 1805, 1806, 1811
 1812, 1814, 1815, 1816, 1820, 1822, 1823, 1824, 1829, 1831, 1834, 1835, 1838, 1839, 1840, 1846
 1852, 1866, 1871, 1873, 1879, 1883, 1891, 1902, 1904, 1909, 1910, 1911, 1912, 1913, 1919, 1922
 1926, 1933, 1934, 1935, 1938, 1948, 1956, 1957, 1958, 1964, 1972, 1973, 1974, 1975, 1978, 1981
 1985, 1986, 1988, 1992, 1998, 1999, 2000, 2001, 2007, 2011, 2012, 2015, 2021, 2041, 2050, 2054
 2055, 2056, 2068, 2071, 2081, 2082, 2087, 2088, 2091, 2092, 2093, 2096, 2097, 2098, 2100, 2101
 2103, 2106, 2111, 2112, 2113, 2121, 2124, 2125, 2127, 2132, 2133, 2136, 2140, 2143, 2144, 2148
 2149, 2153, 2154, 2156, 2158, 2159, 2160, 2181, 2188, 2193, 2199, 2201, 2203, 2204, 2207, 2215
 2217, 2229, 2234, 2237, 2242, 2252, 2274, 2276, 2277, 2280, 2281, 2286, 2288, 2292, 2293, 2294
 2296, 2297, 2299, 2304, 2308, 2309, 2310, 2311, 2312, 2314, 2315, 2318, 2319, 2320, 2321, 2327
 2328, 2331, 2332, 2333, 2334, 2337, 2338, 2340, 2342, 2343, 2344, 2348, 2349, 2354, 2373, 2376
 2379, 2380, 2382, 2389, 2394, 2400, 2403, 2404, 2416, 2419, 2420, 2426, 2436, 2442, 2444, 2448
 2449, 2456, 2464, 2465, 2477, 2478, 2486, 2494, 2502, 2506, 2510, 2513, 2520, 2528, 2532, 2537
** ... 35 like lines cut
*End Assembly
** 
** MATERIALS
** 
*Material, name=Material-1
*Hyperelastic, neo hooke
 3.44828e+08, 3e-10
** ----------------------------------------------------------------
** 
** STEP: Step-1
** 
*Step, name=Step-1, nlgeom=YES
*Static
1., 1., 1e-05, 1.
** 
** BOUNDARY CONDITIONS
** 
** Name: BC-1 Type: Displacement/Rotation Using Analytical Field: AnalyticalField-2
*Boundary
Part-1-1.1, 1, 1
Part-1-1.2, 1, 1
Part-1-1.3, 1, 1
Part-1-1.4, 1, 1
Part-1-1.5, 1, 1
Part-1-1.6, 1, 1
Part-1-1.7, 1, 1
Part-1-1.8, 1, 1
Part-1-1.9, 1, 1
Part-1-1.10, 1, 1
Part-1-1.11, 1, 1
Part-1-1.12, 1, 1
Part-1-1.13, 1, 1
Part-1-1.14, 1, 1
Part-1-1.15, 1, 1
Part-1-1.16, 1, 1
Part-1-1.17, 1, 1, -1.22393
Part-1-1.18, 1, 1, -0.84784
Part-1-1.19, 1, 1, -0.559153
Part-1-1.20, 1, 1, -0.190628
** ... 1300 like lines cut
** 
** OUTPUT REQUESTS
** 
*Restart, write, frequency=0
** 
** FIELD OUTPUT: F-Output-1
** 
*Output, field
*Node Output
COORD, U, UR, UT, V, VR, VT
*Element Output, directions=NO
E, EE, ER, IE, LE, NE, PE, PEEQ, PEEQMAX, PEEQT, PEMAG, PEQC, S, SALPHA, SE, SEE
SEP, SEPE, SPE, THE, VE, VEEQ
*EL PRINT, POSITION=CENTROID
DG
** 
** HISTORY OUTPUT: H-Output-1
** 
*Output, history, variable=PRESELECT
*End Step
